<nodes>
<node id="245674992" x="-205.04029776301468" y="382.6459461869672" />
<node id="667357310" x="297.4226647641626" y="-503.4383078175597" />
<node id="667357311" x="363.73880734754493" y="-485.42836157185957" />
<node id="667357317" x="229.5990876641008" y="-259.6697115623392" />
<node id="667357318" x="131.1773091398063" y="-228.12374748429283" />
<node id="667357325" x="308.30134272866417" y="-140.175187014509" />
<node id="667357383" x="690.8734497494879" y="-140.16176627436653" />
<node id="667357392" x="674.0887343956274" y="130.3013503025286" />
<node id="667357401" x="735.8494101937977" y="135.38990181451663" />
<node id="667357409" x="631.9574428775231" y="394.8771659922786" />
<node id="667357415" x="714.3867353523965" y="393.0095149022527" />
<node id="667357416" x="701.8881865317817" y="424.21611882466823" />
<node id="668660548" x="350.0415422707447" y="-636.8225987264886" />
<node id="668660552" x="409.7025021253503" y="-609.465584397316" />
<node id="668660560" x="665.2996123584453" y="-328.4845303702168" />
<node id="668685380" x="689.0389429165516" y="-89.18530674604699" />
<node id="668699249" x="306.70327958103735" y="-262.6822058008984" />
<node id="2081722939" x="-697.8098271097406" y="536.9045148920268" />
<node id="4348259319" x="-658.8540531806648" y="527.0592900426127" />
<node id="5366445083" x="191.55191226047464" y="404.8461959012784" />
<node id="5879215623" x="695.8705133459298" y="-245.48538483446464" />
<node id="5879215650" x="380.202016197436" y="-531.9068291010335" />
<node id="6435688923" x="73.00380036205752" y="-695.9763080636039" />
<node id="6435688924" x="68.87255197111517" y="-609.1865016734228" />
<node id="6495983054" x="252.82963583193487" y="-372.22003244934604" />
<node id="6495983060" x="160.87789694446838" y="-381.36471757804975" />
<node id="8666700466" x="258.9345160421799" y="-137.4935956792906" />
<node id="8699875156" x="-728.3518398529268" y="486.63666125852615" />
<node id="9169143586" x="681.697892846365" y="686.9472507867031" />
</nodes>