<edges>
<edge from="301037251" to="4233524666" id="301037251to4233524666" numLanes="1" shape="169.61313406692352,-63.64399807062 142.35196441819426,-55.7721516569145 124.35966097470373,-44.58220977848396 52.58408508403227,-15.217842287849635 33.40423438535072,-6.532859545666724 28.774563911138102,-4.433422620408237 -21.993089610594325,18.55253037204966 -162.71640518982895,82.29065526369959 -162.71640518982895,82.29065526369959" />
<edge from="301037252" to="564483463" id="301037252to564483463" numLanes="1" shape="-470.83415240305476,236.0813126466237 -464.89671911485493,232.04323011031374 -460.9586088313954,225.98420990258455 -461.8354695287999,217.16554412338883 -461.8354695287999,217.16554412338883" />
<edge from="301037252" to="4233527012" id="301037252to4233527012" numLanes="1" shape="-470.83415240305476,236.0813126466237 -463.14943664358,262.9177186479792 -459.59696280793287,275.3217677487992 -459.59696280793287,275.3217677487992" />
<edge from="301037253" to="564483461" id="301037253to564483461" numLanes="1" shape="-621.3113161993679,289.58016554964706 -485.6161560972687,228.57230356009677" />
<edge from="301037254" to="4233527085" id="301037254to4233527085" numLanes="1" shape="-534.3132520291256,487.14165521785617 -520.0631907635834,516.292854200583 -502.27447899919935,552.6926490385085 -502.27447899919935,552.6926490385085" />
<edge from="301037254" to="473651125" id="301037254to473651125" numLanes="1" shape="-534.3132520291256,487.14165521785617 -530.9168753216509,483.94414462381974 -529.8846053621965,479.4064151677303 -531.5970223480836,475.0736371842213 -531.5970223480836,475.0736371842213" />
<edge from="301037255" to="3636985389" id="301037255to3636985389" numLanes="1" shape="-669.6478827748215,175.50654066214338 -576.7845392797608,139.97017676755786 -567.3882119787158,138.97734369663522 -550.176392378984,143.16023170016706 -538.8013602277497,147.46956854779273 -498.6970425846521,162.65743629215285 -498.6970425846521,162.65743629215285" />
<edge from="473651125" to="4999072816" id="473651125to4999072816" numLanes="1" shape="-531.5970223480836,475.0736371842213 -510.97833424503915,464.71782225649804" />
<edge from="473651125" to="564483517" id="473651125to564483517" numLanes="1" shape="-531.5970223480836,475.0736371842213 -534.3565812020097,472.87254922045395 -537.79745308985,472.06702605402097 -540.340160573367,471.93198041664436 -544.9532422639895,476.36008724942803 -546.0405223694397,482.3047992186621 -546.0405223694397,482.3047992186621" />
<edge from="564483317" to="4233524655" id="564483317to4233524655" numLanes="1" shape="-752.0893101174152,1.0782451396808028 -800.9153501030523,24.524079690221697" />
<edge from="564483317" to="4233524638" id="564483317to4233524638" numLanes="1" shape="-752.0893101174152,1.0782451396808028 -653.0550442573149,-44.268833592534065" />
<edge from="564483317" to="4233524630" id="564483317to4233524630" numLanes="1" shape="-752.0893101174152,1.0782451396808028 -788.1989184804261,-76.56362206768245" />
<edge from="564483459" to="3636985386" id="564483459to3636985386" numLanes="1" shape="-477.95149069000036,211.94927847199142 -481.4799624599982,198.22638421226293" />
<edge from="564483459" to="564483461" id="564483459to564483461" numLanes="1" shape="-477.95149069000036,211.94927847199142 -483.4335149677936,215.70742262760177 -486.4417370216688,221.77231759252027 -486.50478319625836,225.23015363700688 -485.6161560972687,228.57230356009677 -485.6161560972687,228.57230356009677" />
<edge from="564483461" to="301037253" id="564483461to301037253" numLanes="1" shape="-485.6161560972687,228.57230356009677 -621.3113161993679,289.58016554964706" />
<edge from="564483461" to="301037252" id="564483461to301037252" numLanes="1" shape="-485.6161560972687,228.57230356009677 -484.10705259407405,231.17188531067222 -482.01248906366527,233.3386824610643 -476.7151710249018,235.95190511550754 -470.83415240305476,236.0813126466237 -470.83415240305476,236.0813126466237" />
<edge from="564483463" to="3055043751" id="564483463to3055043751" numLanes="1" shape="-461.8354695287999,217.16554412338883 -316.63642516417895,152.05341881373897" />
<edge from="564483463" to="564483459" id="564483463to564483459" numLanes="1" shape="-461.8354695287999,217.16554412338883 -465.706218495965,213.62488955585286 -471.6125050712144,211.12251009512693 -477.95149069000036,211.94927847199142 -477.95149069000036,211.94927847199142" />
<edge from="564483517" to="4233527074" id="564483517to4233527074" numLanes="1" shape="-546.0405223694397,482.3047992186621 -560.252764164703,493.49807037832215" />
<edge from="564483517" to="301037254" id="564483517to301037254" numLanes="1" shape="-546.0405223694397,482.3047992186621 -543.4493696552236,485.68906911695376 -539.1132808692055,487.86346291424707 -534.3132520291256,487.14165521785617 -534.3132520291256,487.14165521785617" />
<edge from="2102480543" to="4233524597" id="2102480543to4233524597" numLanes="1" shape="783.7676463220268,-446.49167027231306 759.9378499650629,-508.9136428288184" />
<edge from="2102480543" to="4233524602" id="2102480543to4233524602" numLanes="1" shape="783.7676463220268,-446.49167027231306 798.2927362105111,-411.61302275862545" />
<edge from="2102480543" to="4233654430" id="2102480543to4233654430" numLanes="1" shape="783.7676463220268,-446.49167027231306 716.1459530745633,-418.59590748650953" />
<edge from="2102480543" to="4233524600" id="2102480543to4233524600" numLanes="1" shape="783.7676463220268,-446.49167027231306 814.3376420501154,-459.61192309716716 858.5766673757462,-442.95781232463196 858.5766673757462,-442.95781232463196" />
<edge from="2102480576" to="4233654471" id="2102480576to4233654471" numLanes="1" shape="506.8213832421461,-332.2198323230259 560.9277614630992,-354.54386070370674" />
<edge from="2102480576" to="4233654441" id="2102480576to4233654441" numLanes="1" shape="506.8213832421461,-332.2198323230259 485.5175463274354,-395.7811618903652" />
<edge from="2102480576" to="4233654506" id="2102480576to4233654506" numLanes="1" shape="506.8213832421461,-332.2198323230259 507.0428915154189,-321.3287753118202 516.8667914546095,-306.0822242689319 529.8672854192555,-297.50702311331406 529.8672854192555,-297.50702311331406" />
<edge from="2102480576" to="4233654485" id="2102480576to4233654485" numLanes="1" shape="506.8213832421461,-332.2198323230259 478.863499940373,-328.5854387888685 470.948630285915,-333.14281701948494 470.948630285915,-333.14281701948494" />
<edge from="2102480797" to="4233524611" id="2102480797to4233524611" numLanes="1" shape="641.453498871997,-237.22494136029854 600.2502904614666,-259.24398606829345" />
<edge from="2102480797" to="4233524615" id="2102480797to4233524615" numLanes="1" shape="641.453498871997,-237.22494136029854 651.8112949997885,-207.8552666939795" />
<edge from="2102480797" to="4233654563" id="2102480797to4233654563" numLanes="1" shape="641.453498871997,-237.22494136029854 655.6143262939295,-240.69051208207384 677.6899422233691,-220.90658220089972 677.6899422233691,-220.90658220089972" />
<edge from="2102480800" to="4233654565" id="2102480800to4233654565" numLanes="1" shape="899.1979847082403,-169.37168593658134 881.5321235596202,-211.78050200967118" />
<edge from="2102480800" to="4233524618" id="2102480800to4233524618" numLanes="1" shape="899.1979847082403,-169.37168593658134 910.0697956038639,-141.91027316544205" />
<edge from="2102480805" to="9186411589" id="2102480805to9186411589" numLanes="1" shape="960.6201104433276,-14.218450021930039 915.2623161498923,-128.7882464490831" />
<edge from="2102480805" to="4233654626" id="2102480805to4233654626" numLanes="1" shape="960.6201104433276,-14.218450021930039 900.773655263707,-0.21681105997413397" />
<edge from="2102480808" to="4233524651" id="2102480808to4233524651" numLanes="1" shape="735.8537056033965,37.91153494408354 759.2413770687999,32.55319209303707" />
<edge from="2102480808" to="4233524619" id="2102480808to4233524619" numLanes="1" shape="735.8537056033965,37.91153494408354 694.7219492493896,-86.2029223702848 675.1511969014537,-141.68411395000294 675.1511969014537,-141.68411395000294" />
<edge from="3055043746" to="3178456078" id="3055043746to3178456078" numLanes="1" shape="-307.1280931327492,407.7819834421389 -306.19122361857444,372.0007449835539" />
<edge from="3055043751" to="564483463" id="3055043751to564483463" numLanes="1" shape="-316.63642516417895,152.05341881373897 -461.8354695287999,217.16554412338883" />
<edge from="3055043751" to="4233524645" id="3055043751to4233524645" numLanes="1" shape="-316.63642516417895,152.05341881373897 -343.8088285026606,96.62402607919648 -357.28445937565994,81.35597547609359 -354.67058291996364,71.69188662711531 -383.9138767347904,44.43997830711305 -388.7150475610979,40.38343842467293 -407.27862933592405,-0.797792186960578 -420.9639435893623,-11.557373493909836 -420.9639435893623,-11.557373493909836" />
<edge from="3055043751" to="4233527004" id="3055043751to4233527004" numLanes="1" shape="-316.63642516417895,152.05341881373897 -303.32288477406837,184.7798162023537 -290.0216862608213,218.71444018604234 -298.6784282568842,260.71844631712884 -298.6784282568842,260.71844631712884" />
<edge from="3055043751" to="4233524666" id="3055043751to4233524666" numLanes="1" shape="-316.63642516417895,152.05341881373897 -242.2967354709981,118.32131658261642 -162.71640518982895,82.29065526369959 -162.71640518982895,82.29065526369959" />
<edge from="3055043752" to="3178456078" id="3055043752to3178456078" numLanes="1" shape="-432.56683168257587,369.68408362101763 -306.19122361857444,372.0007449835539" />
<edge from="3055043752" to="4999072808" id="3055043752to4999072808" numLanes="1" shape="-432.56683168257587,369.68408362101763 -416.4243474418763,426.03185369540006 -424.0627183574252,429.40695135947317 -424.0627183574252,429.40695135947317" />
<edge from="3055043752" to="6758737653" id="3055043752to6758737653" numLanes="1" shape="-432.56683168257587,369.68408362101763 -439.9386723525822,343.9509116411209 -441.0522341434844,340.0614153384231 -441.0522341434844,340.0614153384231" />
<edge from="3055043753" to="3055043754" id="3055043753to3055043754" numLanes="1" shape="-230.87869553815108,373.3864685939625 -231.37919834302738,383.6434434899129" />
<edge from="3055043753" to="4233527044" id="3055043753to4233527044" numLanes="1" shape="-230.87869553815108,373.3864685939625 -253.56254767242353,372.9723820821382" />
<edge from="3055043753" to="4233527045" id="3055043753to4233527045" numLanes="1" shape="-230.87869553815108,373.3864685939625 -225.83177089341916,373.6227292586118" />
<edge from="3055043754" to="3055043753" id="3055043754to3055043753" numLanes="1" shape="-231.37919834302738,383.6434434899129 -230.87869553815108,373.3864685939625" />
<edge from="3178456078" to="4233527016" id="3178456078to4233527016" numLanes="1" shape="-306.19122361857444,372.0007449835539 -304.706148457597,315.29818603536114" />
<edge from="3178456078" to="3055043746" id="3178456078to3055043746" numLanes="1" shape="-306.19122361857444,372.0007449835539 -307.1280931327492,407.7819834421389" />
<edge from="3178456078" to="4233527043" id="3178456078to4233527043" numLanes="1" shape="-306.19122361857444,372.0007449835539 -278.30124665703624,372.50974855432287" />
<edge from="3178456078" to="3055043752" id="3178456078to3055043752" numLanes="1" shape="-306.19122361857444,372.0007449835539 -432.56683168257587,369.68408362101763" />
<edge from="3635907904" to="4233524660" id="3635907904to4233524660" numLanes="1" shape="-727.2718452512054,55.310634983703494 -693.4104701802135,40.816475469153374" />
<edge from="3635907910" to="4233524655" id="3635907910to4233524655" numLanes="1" shape="-866.8804017464863,54.31004960555583 -800.9153501030523,24.524079690221697" />
<edge from="3635907910" to="3636985378" id="3635907910to3636985378" numLanes="1" shape="-866.8804017464863,54.31004960555583 -822.0891213245923,151.93231537612155" />
<edge from="3635907910" to="3635907923" id="3635907910to3635907923" numLanes="1" shape="-866.8804017464863,54.31004960555583 -905.0813136307988,-27.32734083617106" />
<edge from="3635907914" to="4233524652" id="3635907914to4233524652" numLanes="1" shape="-567.1144935918273,-14.088745175860822 -629.7050733079668,13.11887324694544" />
<edge from="3635907914" to="4233654624" id="3635907914to4233654624" numLanes="1" shape="-567.1144935918273,-14.088745175860822 -514.539114698302,-36.95533386152238 -475.805200522067,-43.75475497543812 -456.1328431889415,-39.20538024092093 -452.8707472543465,-36.640353079885244 -452.8707472543465,-36.640353079885244" />
<edge from="3635907914" to="4233524638" id="3635907914to4233524638" numLanes="1" shape="-567.1144935918273,-14.088745175860822 -596.1619048133725,-70.39415812073275 -653.0550442573149,-44.268833592534065 -653.0550442573149,-44.268833592534065" />
<edge from="3635907923" to="3635907910" id="3635907923to3635907910" numLanes="1" shape="-905.0813136307988,-27.32734083617106 -866.8804017464863,54.31004960555583" />
<edge from="3635907923" to="3635907929" id="3635907923to3635907929" numLanes="1" shape="-905.0813136307988,-27.32734083617106 -908.9915580285015,-25.480531913228333 -953.0517174237175,-124.63004683889449 -844.126429280499,-181.46177896438166 -840.370688647381,-183.4222473865375 -834.9346309818793,-172.2811968079768 -834.9346309818793,-172.2811968079768" />
<edge from="3635907923" to="4233524639" id="3635907923to4233524639" numLanes="1" shape="-905.0813136307988,-27.32734083617106 -894.4497109239455,-27.876681829802692 -854.0048402209068,-46.40893073473126 -854.0048402209068,-46.40893073473126" />
<edge from="3635907929" to="4233524630" id="3635907929to4233524630" numLanes="1" shape="-834.9346309818793,-172.2811968079768 -788.1989184804261,-76.56362206768245" />
<edge from="3635907929" to="3635907930" id="3635907929to3635907930" numLanes="1" shape="-834.9346309818793,-172.2811968079768 -735.012289213133,-229.7858227295801" />
<edge from="3635907929" to="3635907923" id="3635907929to3635907923" numLanes="1" shape="-834.9346309818793,-172.2811968079768 -840.370688647381,-183.4222473865375 -844.126429280499,-181.46177896438166 -953.0517174237175,-124.63004683889449 -908.9915580285015,-25.480531913228333 -905.0813136307988,-27.32734083617106 -905.0813136307988,-27.32734083617106" />
<edge from="3635907930" to="3635907929" id="3635907930to3635907929" numLanes="1" shape="-735.012289213133,-229.7858227295801 -834.9346309818793,-172.2811968079768" />
<edge from="3635907930" to="4233654570" id="3635907930to4233654570" numLanes="1" shape="-735.012289213133,-229.7858227295801 -723.5931771355681,-213.35839012870565 -651.1122751343064,-191.7611551671289 -634.1363901788136,-229.4119976963848 -634.1363901788136,-229.4119976963848" />
<edge from="3635907930" to="3635907938" id="3635907930to3635907938" numLanes="1" shape="-735.012289213133,-229.7858227295801 -743.221067835344,-254.78005867544562 -726.6901029848959,-265.3216202571057 -726.6901029848959,-265.3216202571057" />
<edge from="3635907938" to="3635907930" id="3635907938to3635907930" numLanes="1" shape="-726.6901029848959,-265.3216202571057 -743.221067835344,-254.78005867544562 -735.012289213133,-229.7858227295801 -735.012289213133,-229.7858227295801" />
<edge from="3635907938" to="4233654570" id="3635907938to4233654570" numLanes="1" shape="-726.6901029848959,-265.3216202571057 -695.2726198032033,-285.3370679933578 -648.838979078806,-260.6665182169527 -630.9330202424899,-236.5155030945316 -634.1363901788136,-229.4119976963848 -634.1363901788136,-229.4119976963848" />
<edge from="3636985377" to="3636985378" id="3636985377to3636985378" numLanes="1" shape="-706.8706305878004,98.30967212608084 -822.0891213245923,151.93231537612155" />
<edge from="3636985378" to="3636985377" id="3636985378to3636985377" numLanes="1" shape="-822.0891213245923,151.93231537612155 -706.8706305878004,98.30967212608084" />
<edge from="3636985378" to="3635907910" id="3636985378to3635907910" numLanes="1" shape="-822.0891213245923,151.93231537612155 -866.8804017464863,54.31004960555583" />
<edge from="3636985378" to="6095495876" id="3636985378to6095495876" numLanes="1" shape="-822.0891213245923,151.93231537612155 -863.0559256473789,165.2886181846261 -875.6856327037094,196.5664853216149 -931.1551028848626,178.450696059037 -962.1360067492351,102.98696099221706 -962.1360067492351,102.98696099221706" />
<edge from="3636985378" to="3636985385" id="3636985378to3636985385" numLanes="1" shape="-822.0891213245923,151.93231537612155 -814.4374457412632,178.47957025514916 -815.4687064556638,185.6559135140851 -820.2519555640174,199.97015761723742 -820.2519555640174,199.97015761723742" />
<edge from="3636985385" to="3636985378" id="3636985385to3636985378" numLanes="1" shape="-820.2519555640174,199.97015761723742 -815.4687064556638,185.6559135140851 -814.4374457412632,178.47957025514916 -822.0891213245923,151.93231537612155 -822.0891213245923,151.93231537612155" />
<edge from="3636985386" to="564483459" id="3636985386to564483459" numLanes="1" shape="-481.4799624599982,198.22638421226293 -477.95149069000036,211.94927847199142" />
<edge from="3636985386" to="3636985389" id="3636985386to3636985389" numLanes="1" shape="-481.4799624599982,198.22638421226293 -483.01531116175465,192.23385747615248 -487.1433198704617,176.49338007858023 -498.6970425846521,162.65743629215285 -498.6970425846521,162.65743629215285" />
<edge from="3636985389" to="3636985386" id="3636985389to3636985386" numLanes="1" shape="-498.6970425846521,162.65743629215285 -487.1433198704617,176.49338007858023 -483.01531116175465,192.23385747615248 -481.4799624599982,198.22638421226293 -481.4799624599982,198.22638421226293" />
<edge from="3636985389" to="301037255" id="3636985389to301037255" numLanes="1" shape="-498.6970425846521,162.65743629215285 -538.8013602277497,147.46956854779273 -550.176392378984,143.16023170016706 -567.3882119787158,138.97734369663522 -576.7845392797608,139.97017676755786 -669.6478827748215,175.50654066214338 -669.6478827748215,175.50654066214338" />
<edge from="4233524596" to="4233524597" id="4233524596to4233524597" numLanes="1" shape="850.7813852482941,-546.3723071948625 759.9378499650629,-508.9136428288184" />
<edge from="4233524596" to="4233524600" id="4233524596to4233524600" numLanes="1" shape="850.7813852482941,-546.3723071948625 871.7131071066251,-472.7504006116651 858.5766673757462,-442.95781232463196 858.5766673757462,-442.95781232463196" />
<edge from="4233524597" to="2102480543" id="4233524597to2102480543" numLanes="1" shape="759.9378499650629,-508.9136428288184 783.7676463220268,-446.49167027231306" />
<edge from="4233524597" to="4233524596" id="4233524597to4233524596" numLanes="1" shape="759.9378499650629,-508.9136428288184 850.7813852482941,-546.3723071948625" />
<edge from="4233524597" to="4233654441" id="4233524597to4233654441" numLanes="1" shape="759.9378499650629,-508.9136428288184 485.5175463274354,-395.7811618903652" />
<edge from="4233524600" to="4233524603" id="4233524600to4233524603" numLanes="1" shape="858.5766673757462,-442.95781232463196 838.6673419239232,-397.7793109593913" />
<edge from="4233524600" to="4233524604" id="4233524600to4233524604" numLanes="1" shape="858.5766673757462,-442.95781232463196 898.0067671635188,-432.06808411562815 872.5498020848026,-384.9403896816075 872.5498020848026,-384.9403896816075" />
<edge from="4233524600" to="2102480543" id="4233524600to2102480543" numLanes="1" shape="858.5766673757462,-442.95781232463196 814.3376420501154,-459.61192309716716 783.7676463220268,-446.49167027231306 783.7676463220268,-446.49167027231306" />
<edge from="4233524600" to="4233524596" id="4233524600to4233524596" numLanes="1" shape="858.5766673757462,-442.95781232463196 871.7131071066251,-472.7504006116651 850.7813852482941,-546.3723071948625 850.7813852482941,-546.3723071948625" />
<edge from="4233524602" to="2102480543" id="4233524602to2102480543" numLanes="1" shape="798.2927362105111,-411.61302275862545 783.7676463220268,-446.49167027231306" />
<edge from="4233524602" to="9186411596" id="4233524602to9186411596" numLanes="1" shape="798.2927362105111,-411.61302275862545 818.9976037053857,-361.92020627995953" />
<edge from="4233524602" to="4233524603" id="4233524602to4233524603" numLanes="1" shape="798.2927362105111,-411.61302275862545 838.6673419239232,-397.7793109593913" />
<edge from="4233524603" to="4233524600" id="4233524603to4233524600" numLanes="1" shape="838.6673419239232,-397.7793109593913 858.5766673757462,-442.95781232463196" />
<edge from="4233524603" to="4233524602" id="4233524603to4233524602" numLanes="1" shape="838.6673419239232,-397.7793109593913 798.2927362105111,-411.61302275862545" />
<edge from="4233524603" to="9186411596" id="4233524603to9186411596" numLanes="1" shape="838.6673419239232,-397.7793109593913 818.9976037053857,-361.92020627995953" />
<edge from="4233524604" to="4233524600" id="4233524604to4233524600" numLanes="1" shape="872.5498020848026,-384.9403896816075 898.0067671635188,-432.06808411562815 858.5766673757462,-442.95781232463196 858.5766673757462,-442.95781232463196" />
<edge from="4233524607" to="9186411596" id="4233524607to9186411596" numLanes="1" shape="823.5642880726373,-350.96051512798294 818.9976037053857,-361.92020627995953" />
<edge from="4233524607" to="4233524610" id="4233524607to4233524610" numLanes="1" shape="823.5642880726373,-350.96051512798294 847.9348705275916,-292.44199108053" />
<edge from="4233524607" to="4233654488" id="4233524607to4233654488" numLanes="1" shape="823.5642880726373,-350.96051512798294 739.8176184393233,-322.4515547528863" />
<edge from="4233524608" to="4233524610" id="4233524608to4233524610" numLanes="1" shape="894.5544506442966,-311.66456554597244 847.9348705275916,-292.44199108053" />
<edge from="4233524610" to="4233524607" id="4233524610to4233524607" numLanes="1" shape="847.9348705275916,-292.44199108053 823.5642880726373,-350.96051512798294" />
<edge from="4233524610" to="4233654565" id="4233524610to4233654565" numLanes="1" shape="847.9348705275916,-292.44199108053 881.5321235596202,-211.78050200967118" />
<edge from="4233524610" to="4233654514" id="4233524610to4233654514" numLanes="1" shape="847.9348705275916,-292.44199108053 820.1603951654397,-281.7318042307161" />
<edge from="4233524610" to="4233524608" id="4233524610to4233524608" numLanes="1" shape="847.9348705275916,-292.44199108053 894.5544506442966,-311.66456554597244" />
<edge from="4233524611" to="2102480797" id="4233524611to2102480797" numLanes="1" shape="600.2502904614666,-259.24398606829345 641.453498871997,-237.22494136029854" />
<edge from="4233524611" to="4233654517" id="4233524611to4233654517" numLanes="1" shape="600.2502904614666,-259.24398606829345 646.023087898735,-281.9752883305773" />
<edge from="4233524611" to="4233654506" id="4233524611to4233654506" numLanes="1" shape="600.2502904614666,-259.24398606829345 535.1682024367619,-294.0174432359636 529.8672854192555,-297.50702311331406 529.8672854192555,-297.50702311331406" />
<edge from="4233524611" to="4233524616" id="4233524611to4233524616" numLanes="1" shape="600.2502904614666,-259.24398606829345 597.0094252467388,-246.93075708579272 616.0542269584257,-198.5104431505315 616.0542269584257,-198.5104431505315" />
<edge from="4233524615" to="2102480797" id="4233524615to2102480797" numLanes="1" shape="651.8112949997885,-207.8552666939795 641.453498871997,-237.22494136029854" />
<edge from="4233524615" to="4233524619" id="4233524615to4233524619" numLanes="1" shape="651.8112949997885,-207.8552666939795 675.1511969014537,-141.68411395000294" />
<edge from="4233524615" to="4233524616" id="4233524615to4233524616" numLanes="1" shape="651.8112949997885,-207.8552666939795 616.0542269584257,-198.5104431505315" />
<edge from="4233524615" to="4233654563" id="4233524615to4233654563" numLanes="1" shape="651.8112949997885,-207.8552666939795 677.6899422233691,-220.90658220089972" />
<edge from="4233524616" to="4233524617" id="4233524616to4233524617" numLanes="1" shape="616.0542269584257,-198.5104431505315 585.9340315166628,-191.72301715426147" />
<edge from="4233524616" to="4233524615" id="4233524616to4233524615" numLanes="1" shape="616.0542269584257,-198.5104431505315 651.8112949997885,-207.8552666939795" />
<edge from="4233524616" to="4233524611" id="4233524616to4233524611" numLanes="1" shape="616.0542269584257,-198.5104431505315 597.0094252467388,-246.93075708579272 600.2502904614666,-259.24398606829345 600.2502904614666,-259.24398606829345" />
<edge from="4233524616" to="4233524620" id="4233524616to4233524620" numLanes="1" shape="616.0542269584257,-198.5104431505315 639.335707333521,-139.29172622133046 664.9672457486158,-141.00602186704054 664.9672457486158,-141.00602186704054" />
<edge from="4233524617" to="4233524616" id="4233524617to4233524616" numLanes="1" shape="585.9340315166628,-191.72301715426147 616.0542269584257,-198.5104431505315" />
<edge from="4233524618" to="9186411589" id="4233524618to9186411589" numLanes="1" shape="910.0697956038639,-141.91027316544205 915.2623161498923,-128.7882464490831" />
<edge from="4233524619" to="4233524615" id="4233524619to4233524615" numLanes="1" shape="675.1511969014537,-141.68411395000294 651.8112949997885,-207.8552666939795" />
<edge from="4233524619" to="4233524620" id="4233524619to4233524620" numLanes="1" shape="675.1511969014537,-141.68411395000294 664.9672457486158,-141.00602186704054" />
<edge from="4233524620" to="4233524619" id="4233524620to4233524619" numLanes="1" shape="664.9672457486158,-141.00602186704054 675.1511969014537,-141.68411395000294" />
<edge from="4233524620" to="4233524653" id="4233524620to4233524653" numLanes="1" shape="664.9672457486158,-141.00602186704054 686.5743963103741,-82.86000404786319 730.0689188756514,40.00061109242961 730.0689188756514,40.00061109242961" />
<edge from="4233524620" to="4233524616" id="4233524620to4233524616" numLanes="1" shape="664.9672457486158,-141.00602186704054 639.335707333521,-139.29172622133046 616.0542269584257,-198.5104431505315 616.0542269584257,-198.5104431505315" />
<edge from="4233524626" to="4233524633" id="4233524626to4233524633" numLanes="1" shape="-712.2303443213459,-115.35772928409278 -681.2599179174285,-98.48547648079693 -664.5089337034151,-66.29566269693896 -664.5089337034151,-66.29566269693896" />
<edge from="4233524630" to="3635907929" id="4233524630to3635907929" numLanes="1" shape="-788.1989184804261,-76.56362206768245 -834.9346309818793,-172.2811968079768" />
<edge from="4233524630" to="564483317" id="4233524630to564483317" numLanes="1" shape="-788.1989184804261,-76.56362206768245 -752.0893101174152,1.0782451396808028" />
<edge from="4233524630" to="4233524636" id="4233524630to4233524636" numLanes="1" shape="-788.1989184804261,-76.56362206768245 -846.413435265189,-49.884953340981156" />
<edge from="4233524632" to="4233524636" id="4233524632to4233524636" numLanes="1" shape="-859.348532169126,-71.22898767935112 -846.413435265189,-49.884953340981156" />
<edge from="4233524633" to="4233524637" id="4233524633to4233524637" numLanes="1" shape="-664.5089337034151,-66.29566269693896 -725.7651210903423,-45.704018734861165" />
<edge from="4233524633" to="4233524638" id="4233524633to4233524638" numLanes="1" shape="-664.5089337034151,-66.29566269693896 -653.0550442573149,-44.268833592534065" />
<edge from="4233524633" to="4233524626" id="4233524633to4233524626" numLanes="1" shape="-664.5089337034151,-66.29566269693896 -681.2599179174285,-98.48547648079693 -712.2303443213459,-115.35772928409278 -712.2303443213459,-115.35772928409278" />
<edge from="4233524636" to="4233524632" id="4233524636to4233524632" numLanes="1" shape="-846.413435265189,-49.884953340981156 -859.348532169126,-71.22898767935112" />
<edge from="4233524636" to="4233524639" id="4233524636to4233524639" numLanes="1" shape="-846.413435265189,-49.884953340981156 -854.0048402209068,-46.40893073473126" />
<edge from="4233524636" to="4233524630" id="4233524636to4233524630" numLanes="1" shape="-846.413435265189,-49.884953340981156 -788.1989184804261,-76.56362206768245" />
<edge from="4233524637" to="4233524633" id="4233524637to4233524633" numLanes="1" shape="-725.7651210903423,-45.704018734861165 -664.5089337034151,-66.29566269693896" />
<edge from="4233524638" to="564483317" id="4233524638to564483317" numLanes="1" shape="-653.0550442573149,-44.268833592534065 -752.0893101174152,1.0782451396808028" />
<edge from="4233524638" to="4233524633" id="4233524638to4233524633" numLanes="1" shape="-653.0550442573149,-44.268833592534065 -664.5089337034151,-66.29566269693896" />
<edge from="4233524638" to="4233524652" id="4233524638to4233524652" numLanes="1" shape="-653.0550442573149,-44.268833592534065 -629.7050733079668,13.11887324694544" />
<edge from="4233524638" to="3635907914" id="4233524638to3635907914" numLanes="1" shape="-653.0550442573149,-44.268833592534065 -596.1619048133725,-70.39415812073275 -567.1144935918273,-14.088745175860822 -567.1144935918273,-14.088745175860822" />
<edge from="4233524639" to="4233524641" id="4233524639to4233524641" numLanes="1" shape="-854.0048402209068,-46.40893073473126 -830.2021154105896,-29.97793996334076" />
<edge from="4233524639" to="4233524636" id="4233524639to4233524636" numLanes="1" shape="-854.0048402209068,-46.40893073473126 -846.413435265189,-49.884953340981156" />
<edge from="4233524639" to="3635907923" id="4233524639to3635907923" numLanes="1" shape="-854.0048402209068,-46.40893073473126 -894.4497109239455,-27.876681829802692 -905.0813136307988,-27.32734083617106 -905.0813136307988,-27.32734083617106" />
<edge from="4233524641" to="4233524639" id="4233524641to4233524639" numLanes="1" shape="-830.2021154105896,-29.97793996334076 -854.0048402209068,-46.40893073473126" />
<edge from="4233524644" to="4233524656" id="4233524644to4233524656" numLanes="1" shape="-684.1584987859242,-16.742275211028755 -663.2648603641428,27.7070469208993" />
<edge from="4233524645" to="4233654624" id="4233524645to4233654624" numLanes="1" shape="-420.9639435893623,-11.557373493909836 -452.8707472543465,-36.640353079885244" />