<?xml version="1.0" encoding="UTF-8"?>

<!-- generated on 2022-06-16 16:55:31 by Eclipse SUMO netconvert Version 1.13.0
<configuration xmlns:xsi="http://www.w3.org/2001/XMLSchema-instance" xsi:noNamespaceSchemaLocation="http://sumo.dlr.de/xsd/netconvertConfiguration.xsd">

    <input>
        <node-files value="iit_bombay.nod.xml"/>
        <edge-files value="iit_bombay.edg.xml"/>
    </input>

    <output>
        <output-file value="iit_bombay.net.xml"/>
    </output>

    <report>
        <aggregate-warnings value="5"/>
    </report>

</configuration>
-->

<net version="1.9" junctionCornerDetail="5" limitTurnSpeed="5.50" xmlns:xsi="http://www.w3.org/2001/XMLSchema-instance" xsi:noNamespaceSchemaLocation="http://sumo.dlr.de/xsd/net_file.xsd">

    <location netOffset="728.35,695.98" convBoundary="0.00,0.00,1482.13,1382.92" origBoundary="-728.35,-695.98,753.78,686.95" projParameter="!"/>

    <edge id=":2081722939_0" function="internal">
        <lane id=":2081722939_0_0" index="0" speed="3.65" length="4.67" shape="30.93,1234.43 29.57,1233.95 28.99,1233.27 29.18,1232.40 30.15,1231.33"/>
    </edge>
    <edge id=":245674992_0" function="internal">
        <lane id=":245674992_0_0" index="0" speed="13.89" length="14.76" shape="531.88,1076.83 518.26,1082.53"/>
    </edge>
    <edge id=":245674992_1" function="internal">
        <lane id=":245674992_1_0" index="0" speed="7.52" length="4.58" shape="531.88,1076.83 527.44,1077.97"/>
    </edge>
    <edge id=":245674992_2" function="internal">
        <lane id=":245674992_2_0" index="0" speed="3.65" length="1.44" shape="531.88,1076.83 530.46,1076.55"/>
    </edge>
    <edge id=":245674992_9" function="internal">
        <lane id=":245674992_9_0" index="0" speed="7.52" length="11.19" shape="527.44,1077.97 524.22,1077.22 522.21,1074.59 521.42,1070.08"/>
    </edge>
    <edge id=":245674992_10" function="internal">
        <lane id=":245674992_10_0" index="0" speed="3.65" length="3.23" shape="530.46,1076.55 529.79,1075.96 529.86,1075.07 530.66,1073.87"/>
    </edge>
    <edge id=":245674992_3" function="internal">
        <lane id=":245674992_3_0" index="0" speed="5.87" length="9.11" shape="524.62,1069.97 525.08,1072.58 526.24,1074.09 528.10,1074.53 530.66,1073.87"/>
    </edge>
    <edge id=":245674992_4" function="internal">
        <lane id=":245674992_4_0" index="0" speed="9.62" length="15.02" shape="524.62,1069.97 524.35,1074.39 523.19,1077.96 521.17,1080.67 518.26,1082.53"/>
    </edge>
    <edge id=":245674992_5" function="internal">
        <lane id=":245674992_5_0" index="0" speed="3.65" length="4.67" shape="524.62,1069.97 523.86,1071.20 523.08,1071.62 522.26,1071.25 521.42,1070.08"/>
    </edge>
    <edge id=":245674992_6" function="internal">
        <lane id=":245674992_6_0" index="0" speed="8.37" length="11.17" shape="517.00,1079.59 519.03,1078.25 520.44,1076.21 521.24,1073.49 521.42,1070.08"/>
    </edge>
    <edge id=":245674992_7" function="internal">
        <lane id=":245674992_7_0" index="0" speed="13.89" length="14.82" shape="517.00,1079.59 530.66,1073.87"/>
    </edge>
    <edge id=":245674992_8" function="internal">
        <lane id=":245674992_8_0" index="0" speed="3.65" length="1.44" shape="517.00,1079.59 518.41,1079.86"/>
    </edge>
    <edge id=":245674992_11" function="internal">
        <lane id=":245674992_11_0" index="0" speed="3.65" length="3.23" shape="518.41,1079.86 519.10,1080.43 519.05,1081.33 518.26,1082.53"/>
    </edge>
    <edge id=":4348259319_0" function="internal">
        <lane id=":4348259319_0_0" index="0" speed="13.89" length="14.55" shape="75.98,1223.27 61.82,1226.63"/>
    </edge>
    <edge id=":4348259319_1" function="internal">
        <lane id=":4348259319_1_0" index="0" speed="9.36" length="3.49" shape="75.98,1223.27 72.50,1223.45"/>
    </edge>
    <edge id=":4348259319_2" function="internal">
        <lane id=":4348259319_2_0" index="0" speed="3.65" length="1.44" shape="75.98,1223.27 74.64,1222.74"/>
    </edge>
    <edge id=":4348259319_9" function="internal">
        <lane id=":4348259319_9_0" index="0" speed="9.36" length="11.32" shape="72.50,1223.45 69.31,1222.42 66.42,1220.19 63.83,1216.74"/>
    </edge>
    <edge id=":4348259319_10" function="internal">
        <lane id=":4348259319_10_0" index="0" speed="3.65" length="3.23" shape="74.64,1222.74 74.08,1222.04 74.30,1221.18 75.30,1220.14"/>
    </edge>
    <edge id=":4348259319_3" function="internal">
        <lane id=":4348259319_3_0" index="0" speed="8.07" length="10.81" shape="66.57,1215.09 68.50,1217.71 70.61,1219.42 72.87,1220.23 75.30,1220.14"/>
    </edge>
    <edge id=":4348259319_4" function="internal">
        <lane id=":4348259319_4_0" index="0" speed="7.58" length="15.46" shape="66.57,1215.09 68.30,1219.17 68.09,1222.46 65.93,1224.94 61.82,1226.63"/>
    </edge>
    <edge id=":4348259319_5" function="internal">
        <lane id=":4348259319_5_0" index="0" speed="3.65" length="4.67" shape="66.57,1215.09 66.50,1216.53 66.02,1217.28 65.13,1217.35 63.83,1216.74"/>
    </edge>
    <edge id=":4348259319_6" function="internal">
        <lane id=":4348259319_6_0" index="0" speed="5.96" length="9.09" shape="61.04,1223.52 63.45,1222.53 64.72,1221.07 64.85,1219.14 63.83,1216.74"/>
    </edge>
    <edge id=":4348259319_7" function="internal">
        <lane id=":4348259319_7_0" index="0" speed="13.89" length="14.66" shape="61.04,1223.52 75.30,1220.14"/>
    </edge>
    <edge id=":4348259319_8" function="internal">
        <lane id=":4348259319_8_0" index="0" speed="3.65" length="1.44" shape="61.04,1223.52 62.40,1224.00"/>
    </edge>
    <edge id=":4348259319_11" function="internal">
        <lane id=":4348259319_11_0" index="0" speed="3.65" length="3.23" shape="62.40,1224.00 62.98,1224.68 62.79,1225.56 61.82,1226.63"/>
    </edge>
    <edge id=":5366445083_0" function="internal">
        <lane id=":5366445083_0_0" index="0" speed="3.65" length="4.67" shape="919.94,1102.42 918.72,1101.65 918.30,1100.86 918.69,1100.05 919.87,1099.22"/>
    </edge>
    <edge id=":5879215623_0" function="internal">
        <lane id=":5879215623_0_0" index="0" speed="3.65" length="4.67" shape="1422.62,450.42 1423.48,449.25 1424.30,448.89 1425.08,449.33 1425.82,450.57"/>
    </edge>
    <edge id=":5879215650_0" function="internal">
        <lane id=":5879215650_0_0" index="0" speed="13.89" length="0.10" shape="1110.05,164.64 1110.05,164.64"/>
    </edge>
    <edge id=":5879215650_1" function="internal">
        <lane id=":5879215650_1_0" index="0" speed="13.89" length="0.10" shape="1107.06,163.50 1107.06,163.50"/>
    </edge>
    <edge id=":6435688923_0" function="internal">
        <lane id=":6435688923_0_0" index="0" speed="3.65" length="4.67" shape="799.76,-0.08 800.61,-1.24 801.43,-1.60 802.21,-1.16 802.95,0.08"/>
    </edge>
    <edge id=":6435688924_0" function="internal">
        <lane id=":6435688924_0_0" index="0" speed="6.12" length="6.60" shape="799.31,89.00 797.68,88.32 796.55,87.29 795.90,85.89 795.75,84.13"/>
    </edge>
    <edge id=":6435688924_1" function="internal">
        <lane id=":6435688924_1_0" index="0" speed="3.93" length="2.20" shape="798.95,84.29 799.00,84.87 799.21,85.34 799.59,85.68 800.13,85.91"/>
    </edge>
    <edge id=":6495983054_0" function="internal">
        <lane id=":6495983054_0_0" index="0" speed="13.89" length="14.42" shape="984.93,317.71 980.29,331.36"/>
    </edge>
    <edge id=":6495983054_1" function="internal">
        <lane id=":6495983054_1_0" index="0" speed="8.30" length="3.93" shape="984.93,317.71 983.20,321.05 983.07,321.16"/>
    </edge>
    <edge id=":6495983054_2" function="internal">
        <lane id=":6495983054_2_0" index="0" speed="3.65" length="1.44" shape="984.93,317.71 983.78,318.58"/>
    </edge>
    <edge id=":6495983054_9" function="internal">
        <lane id=":6495983054_9_0" index="0" speed="8.30" length="10.40" shape="983.07,321.16 980.73,323.14 977.50,323.96 973.53,323.52"/>
    </edge>
    <edge id=":6495983054_10" function="internal">
        <lane id=":6495983054_10_0" index="0" speed="3.65" length="3.23" shape="983.78,318.58 982.90,318.71 982.27,318.07 981.90,316.68"/>
    </edge>
    <edge id=":6495983054_3" function="internal">
        <lane id=":6495983054_3_0" index="0" speed="6.86" length="9.49" shape="974.29,320.41 976.96,320.72 979.12,320.20 980.76,318.85 981.90,316.68"/>
    </edge>
    <edge id=":6495983054_4" function="internal">
        <lane id=":6495983054_4_0" index="0" speed="7.85" length="14.53" shape="974.29,320.41 978.03,321.93 980.27,324.25 981.03,327.40 980.29,331.36"/>
    </edge>
    <edge id=":6495983054_5" function="internal">
        <lane id=":6495983054_5_0" index="0" speed="3.65" length="4.67" shape="974.29,320.41 975.27,321.48 975.46,322.35 974.88,323.03 973.53,323.52"/>
    </edge>
    <edge id=":6495983054_6" function="internal">
        <lane id=":6495983054_6_0" index="0" speed="6.33" length="9.04" shape="977.26,330.33 977.72,327.87 977.25,325.91 975.85,324.46 973.53,323.52"/>
    </edge>
    <edge id=":6495983054_7" function="internal">
        <lane id=":6495983054_7_0" index="0" speed="13.89" length="14.42" shape="977.26,330.33 981.90,316.68"/>
    </edge>
    <edge id=":6495983054_8" function="internal">
        <lane id=":6495983054_8_0" index="0" speed="3.65" length="1.44" shape="977.26,330.33 978.40,329.45"/>
    </edge>
    <edge id=":6495983054_11" function="internal">
        <lane id=":6495983054_11_0" index="0" speed="3.65" length="3.23" shape="978.40,329.45 979.29,329.33 979.92,329.97 980.29,331.36"/>
    </edge>
    <edge id=":6495983060_0" function="internal">
        <lane id=":6495983060_0_0" index="0" speed="5.55" length="9.41" shape="895.75,322.92 893.40,321.21 891.62,321.02 890.40,322.34 889.74,325.17"/>
    </edge>
    <edge id=":6495983060_1" function="internal">
        <lane id=":6495983060_1_0" index="0" speed="13.89" length="16.08" shape="895.75,322.92 892.93,320.12 890.23,316.94 888.06,313.48 886.85,309.83"/>
    </edge>
    <edge id=":6495983060_2" function="internal">
        <lane id=":6495983060_2_0" index="0" speed="3.65" length="4.67" shape="895.75,322.92 895.41,321.52 895.66,320.66 896.50,320.34 897.92,320.57"/>
    </edge>
    <edge id=":6495983060_3" function="internal">
        <lane id=":6495983060_3_0" index="0" speed="13.89" length="14.02" shape="890.01,309.33 891.07,312.69 892.89,315.52 895.26,318.06 897.92,320.57"/>
    </edge>
    <edge id=":6495983060_4" function="internal">
        <lane id=":6495983060_4_0" index="0" speed="13.89" length="15.89" shape="890.01,309.33 890.37,313.19 890.37,317.24 890.11,321.29 889.74,325.17"/>
    </edge>
    <edge id=":6495983060_5" function="internal">
        <lane id=":6495983060_5_0" index="0" speed="3.65" length="1.44" shape="890.01,309.33 889.41,310.64"/>
    </edge>
    <edge id=":6495983060_9" function="internal">
        <lane id=":6495983060_9_0" index="0" speed="3.65" length="3.23" shape="889.41,310.64 888.68,311.16 887.83,310.89 886.85,309.83"/>
    </edge>
    <edge id=":6495983060_6" function="internal">
        <lane id=":6495983060_6_0" index="0" speed="13.89" length="15.06" shape="886.56,324.84 886.93,321.09 887.19,317.32 887.21,313.56 886.85,309.83"/>
    </edge>
    <edge id=":6495983060_7" function="internal">
        <lane id=":6495983060_7_0" index="0" speed="7.37" length="5.11" shape="886.56,324.84 887.71,319.86"/>
    </edge>
    <edge id=":6495983060_8" function="internal">
        <lane id=":6495983060_8_0" index="0" speed="3.65" length="1.44" shape="886.56,324.84 887.48,323.73"/>
    </edge>
    <edge id=":6495983060_10" function="internal">
        <lane id=":6495983060_10_0" index="0" speed="7.37" length="12.69" shape="887.71,319.86 887.80,319.47 890.11,316.97 893.48,317.33 897.92,320.57"/>
    </edge>
    <edge id=":6495983060_11" function="internal">
        <lane id=":6495983060_11_0" index="0" speed="3.65" length="3.23" shape="887.48,323.73 888.32,323.42 889.07,323.90 889.74,325.17"/>
    </edge>
    <edge id=":667357310_0" function="internal">
        <lane id=":667357310_0_0" index="0" speed="6.87" length="9.69" shape="1032.89,196.13 1030.12,195.73 1027.88,196.19 1026.19,197.51 1025.04,199.69"/>
    </edge>
    <edge id=":667357310_1" function="internal">
        <lane id=":667357310_1_0" index="0" speed="7.72" length="14.90" shape="1032.89,196.13 1029.05,194.47 1026.89,192.02 1026.43,188.79 1027.65,184.79"/>
    </edge>
    <edge id=":667357310_2" function="internal">
        <lane id=":667357310_2_0" index="0" speed="3.65" length="4.67" shape="1032.89,196.13 1031.94,195.04 1031.77,194.17 1032.36,193.50 1033.73,193.04"/>
    </edge>
    <edge id=":667357310_3" function="internal">
        <lane id=":667357310_3_0" index="0" speed="6.16" length="9.05" shape="1030.54,186.15 1029.80,188.58 1030.08,190.54 1031.39,192.03 1033.73,193.04"/>
    </edge>
    <edge id=":667357310_4" function="internal">
        <lane id=":667357310_4_0" index="0" speed="13.89" length="14.62" shape="1030.54,186.15 1029.01,189.51 1027.60,192.84 1026.28,196.21 1025.04,199.69"/>
    </edge>
    <edge id=":667357310_5" function="internal">
        <lane id=":667357310_5_0" index="0" speed="3.65" length="1.44" shape="1030.54,186.15 1029.31,186.89"/>
    </edge>
    <edge id=":667357310_9" function="internal">
        <lane id=":667357310_9_0" index="0" speed="3.65" length="3.23" shape="1029.31,186.89 1028.41,186.92 1027.86,186.21 1027.65,184.79"/>
    </edge>
    <edge id=":667357310_6" function="internal">
        <lane id=":667357310_6_0" index="0" speed="13.89" length="14.98" shape="1022.01,198.66 1023.27,195.13 1024.63,191.64 1026.09,188.20 1027.65,184.79"/>
    </edge>
    <edge id=":667357310_7" function="internal">
        <lane id=":667357310_7_0" index="0" speed="8.30" length="4.02" shape="1022.01,198.66 1023.76,195.28 1023.94,195.15"/>
    </edge>
    <edge id=":667357310_8" function="internal">
        <lane id=":667357310_8_0" index="0" speed="3.65" length="1.44" shape="1022.01,198.66 1023.15,197.78"/>
    </edge>
    <edge id=":667357310_10" function="internal">
        <lane id=":667357310_10_0" index="0" speed="8.30" length="10.60" shape="1023.94,195.15 1026.31,193.22 1029.63,192.48 1033.73,193.04"/>
    </edge>
    <edge id=":667357310_11" function="internal">
        <lane id=":667357310_11_0" index="0" speed="3.65" length="3.23" shape="1023.15,197.78 1024.03,197.66 1024.66,198.29 1025.04,199.69"/>
    </edge>
    <edge id=":667357311_0" function="internal">
        <lane id=":667357311_0_0" index="0" speed="13.89" length="14.88" shape="1095.87,204.44 1094.62,207.96 1093.29,211.42 1091.87,214.85 1090.38,218.27"/>
    </edge>
    <edge id=":667357311_1" function="internal">
        <lane id=":667357311_1_0" index="0" speed="8.29" length="4.01" shape="1095.87,204.44 1094.11,207.81 1093.94,207.94"/>
    </edge>
    <edge id=":667357311_2" function="internal">
        <lane id=":667357311_2_0" index="0" speed="3.65" length="1.44" shape="1095.87,204.44 1094.72,205.32"/>
    </edge>
    <edge id=":667357311_9" function="internal">
        <lane id=":667357311_9_0" index="0" speed="8.29" length="10.55" shape="1093.94,207.94 1091.58,209.87 1088.27,210.62 1084.20,210.06"/>
    </edge>
    <edge id=":667357311_10" function="internal">
        <lane id=":667357311_10_0" index="0" speed="3.65" length="3.23" shape="1094.72,205.32 1093.84,205.44 1093.21,204.80 1092.84,203.41"/>
    </edge>
    <edge id=":667357311_3" function="internal">
        <lane id=":667357311_3_0" index="0" speed="6.86" length="9.64" shape="1085.04,206.97 1087.78,207.36 1090.00,206.90 1091.69,205.58 1092.84,203.41"/>
    </edge>
    <edge id=":667357311_4" function="internal">
        <lane id=":667357311_4_0" index="0" speed="7.75" length="14.82" shape="1085.04,206.97 1088.85,208.63 1091.01,211.06 1091.52,214.27 1090.38,218.27"/>
    </edge>
    <edge id=":667357311_5" function="internal">
        <lane id=":667357311_5_0" index="0" speed="3.65" length="4.67" shape="1085.04,206.97 1085.98,208.06 1086.16,208.94 1085.56,209.60 1084.20,210.06"/>
    </edge>
    <edge id=":667357311_6" function="internal">
        <lane id=":667357311_6_0" index="0" speed="6.19" length="9.05" shape="1087.46,216.96 1088.16,214.52 1087.85,212.56 1086.53,211.07 1084.20,210.06"/>
    </edge>
    <edge id=":667357311_7" function="internal">
        <lane id=":667357311_7_0" index="0" speed="13.89" length="14.59" shape="1087.46,216.96 1088.94,213.58 1090.31,210.25 1091.61,206.88 1092.84,203.41"/>
    </edge>
    <edge id=":667357311_8" function="internal">
        <lane id=":667357311_8_0" index="0" speed="3.65" length="1.44" shape="1087.46,216.96 1088.68,216.19"/>
    </edge>
    <edge id=":667357311_11" function="internal">
        <lane id=":667357311_11_0" index="0" speed="3.65" length="3.23" shape="1088.68,216.19 1089.57,216.15 1090.14,216.85 1090.38,218.27"/>
    </edge>
    <edge id=":667357317_0" function="internal">
        <lane id=":667357317_0_0" index="0" speed="9.76" length="10.92" shape="965.74,437.60 962.54,437.97 959.86,438.79 957.70,440.07 956.07,441.81"/>
    </edge>
    <edge id=":667357317_1" function="internal">
        <lane id=":667357317_1_0" index="0" speed="7.75" length="14.81" shape="965.74,437.60 961.61,437.17 958.82,435.50 957.37,432.59 957.25,428.44"/>
    </edge>
    <edge id=":667357317_2" function="internal">
        <lane id=":667357317_2_0" index="0" speed="3.65" length="4.67" shape="965.74,437.60 964.51,436.85 964.08,436.07 964.45,435.25 965.62,434.41"/>
    </edge>
    <edge id=":667357317_3" function="internal">
        <lane id=":667357317_3_0" index="0" speed="6.20" length="9.05" shape="960.43,428.81 960.50,431.34 961.39,433.12 963.10,434.14 965.62,434.41"/>
    </edge>
    <edge id=":667357317_4" function="internal">
        <lane id=":667357317_4_0" index="0" speed="13.89" length="13.87" shape="960.43,428.81 959.91,432.36 959.10,435.63 957.87,438.74 956.07,441.81"/>
    </edge>
    <edge id=":667357317_5" function="internal">
        <lane id=":667357317_5_0" index="0" speed="3.65" length="1.44" shape="960.43,428.81 959.50,429.91"/>
    </edge>
    <edge id=":667357317_9" function="internal">
        <lane id=":667357317_9_0" index="0" speed="3.65" length="3.23" shape="959.50,429.91 958.66,430.21 957.91,429.72 957.25,428.44"/>
    </edge>
    <edge id=":667357317_6" function="internal">
        <lane id=":667357317_6_0" index="0" speed="13.89" length="12.32" shape="953.44,439.98 955.16,437.14 956.20,434.53 956.81,431.76 957.25,428.44"/>
    </edge>
    <edge id=":667357317_7" function="internal">
        <lane id=":667357317_7_0" index="0" speed="10.95" length="3.14" shape="953.44,439.98 955.57,437.66"/>
    </edge>
    <edge id=":667357317_8" function="internal">
        <lane id=":667357317_8_0" index="0" speed="3.65" length="1.44" shape="953.44,439.98 954.78,439.45"/>
    </edge>
    <edge id=":667357317_10" function="internal">
        <lane id=":667357317_10_0" index="0" speed="10.95" length="10.73" shape="955.57,437.66 958.31,435.97 961.66,434.88 965.62,434.41"/>
    </edge>
    <edge id=":667357317_11" function="internal">
        <lane id=":667357317_11_0" index="0" speed="3.65" length="3.23" shape="954.78,439.45 955.67,439.58 956.10,440.37 956.07,441.81"/>
    </edge>
    <edge id=":667357318_0" function="internal">
        <lane id=":667357318_0_0" index="0" speed="13.89" length="16.03" shape="858.43,475.20 858.37,471.30 858.68,467.21 859.30,463.15 860.16,459.33"/>
    </edge>
    <edge id=":667357318_1" function="internal">
        <lane id=":667357318_1_0" index="0" speed="8.20" length="4.30" shape="858.43,475.20 858.79,471.29 858.98,470.97"/>
    </edge>
    <edge id=":667357318_2" function="internal">
        <lane id=":667357318_2_0" index="0" speed="3.65" length="1.44" shape="858.43,475.20 859.14,473.95"/>
    </edge>
    <edge id=":667357318_9" function="internal">
        <lane id=":667357318_9_0" index="0" speed="8.20" length="10.89" shape="858.98,470.97 860.48,468.43 863.49,466.61 867.83,465.84"/>
    </edge>
    <edge id=":667357318_10" function="internal">
        <lane id=":667357318_10_0" index="0" speed="3.65" length="3.23" shape="859.14,473.95 859.91,473.50 860.74,473.84 861.62,474.99"/>
    </edge>
    <edge id=":667357318_3" function="internal">
        <lane id=":667357318_3_0" index="0" speed="6.76" length="9.96" shape="867.99,469.04 865.06,469.53 863.02,470.69 861.87,472.51 861.62,474.99"/>
    </edge>
    <edge id=":667357318_4" function="internal">
        <lane id=":667357318_4_0" index="0" speed="7.56" length="15.54" shape="867.99,469.04 863.54,468.63 860.75,466.87 859.62,463.77 860.16,459.33"/>
    </edge>
    <edge id=":667357318_5" function="internal">
        <lane id=":667357318_5_0" index="0" speed="3.65" length="4.67" shape="867.99,469.04 866.75,468.30 866.31,467.52 866.68,466.70 867.83,465.84"/>
    </edge>
    <edge id=":667357318_6" function="internal">
        <lane id=":667357318_6_0" index="0" speed="5.94" length="9.09" shape="863.25,460.16 862.94,462.76 863.59,464.57 865.23,465.60 867.83,465.84"/>
    </edge>
    <edge id=":667357318_7" function="internal">
        <lane id=":667357318_7_0" index="0" speed="13.89" length="14.98" shape="863.25,460.16 862.40,463.81 861.82,467.51 861.55,471.25 861.62,474.99"/>
    </edge>
    <edge id=":667357318_8" function="internal">
        <lane id=":667357318_8_0" index="0" speed="3.65" length="1.44" shape="863.25,460.16 862.17,461.11"/>
    </edge>
    <edge id=":667357318_11" function="internal">
        <lane id=":667357318_11_0" index="0" speed="3.65" length="3.23" shape="862.17,461.11 861.29,461.29 860.62,460.70 860.16,459.33"/>
    </edge>
    <edge id=":667357325_0" function="internal">
        <lane id=":667357325_0_0" index="0" speed="6.64" length="9.29" shape="1043.84,557.36 1041.38,557.74 1039.61,558.85 1038.53,560.69 1038.15,563.25"/>
    </edge>
    <edge id=":667357325_1" function="internal">
        <lane id=":667357325_1_0" index="0" speed="13.89" length="14.52" shape="1043.84,557.36 1029.32,557.80"/>
    </edge>
    <edge id=":667357325_2" function="internal">
        <lane id=":667357325_2_0" index="0" speed="8.02" length="14.16" shape="1043.84,557.36 1040.00,556.84 1037.24,555.21 1035.56,552.48 1034.96,548.65"/>
    </edge>
    <edge id=":667357325_3" function="internal">
        <lane id=":667357325_3_0" index="0" speed="3.65" length="4.67" shape="1043.84,557.36 1042.63,556.57 1042.23,555.77 1042.62,554.97 1043.82,554.16"/>
    </edge>
    <edge id=":667357325_4" function="internal">
        <lane id=":667357325_4_0" index="0" speed="6.52" length="9.03" shape="1038.16,548.61 1038.54,551.05 1039.61,552.79 1041.37,553.83 1043.82,554.16"/>
    </edge>
    <edge id=":667357325_5" function="internal">
        <lane id=":667357325_5_0" index="0" speed="13.89" length="14.64" shape="1038.16,548.61 1038.15,563.25"/>
    </edge>
    <edge id=":667357325_6" function="internal">
        <lane id=":667357325_6_0" index="0" speed="8.18" length="4.14" shape="1038.16,548.61 1037.65,552.45 1037.52,552.68"/>
    </edge>
    <edge id=":667357325_7" function="internal">
        <lane id=":667357325_7_0" index="0" speed="3.65" length="1.44" shape="1038.16,548.61 1037.38,549.82"/>
    </edge>
    <edge id=":667357325_16" function="internal">
        <lane id=":667357325_16_0" index="0" speed="8.18" length="10.27" shape="1037.52,552.68 1036.01,555.26 1033.23,557.04 1029.32,557.80"/>
    </edge>
    <edge id=":667357325_17" function="internal">
        <lane id=":667357325_17_0" index="0" speed="3.65" length="3.23" shape="1037.38,549.82 1036.58,550.23 1035.78,549.84 1034.96,548.65"/>
    </edge>
    <edge id=":667357325_8" function="internal">
        <lane id=":667357325_8_0" index="0" speed="6.72" length="9.40" shape="1029.15,554.61 1031.72,554.11 1033.54,552.96 1034.62,551.13 1034.96,548.65"/>
    </edge>
    <edge id=":667357325_9" function="internal">
        <lane id=":667357325_9_0" index="0" speed="13.89" length="14.68" shape="1029.15,554.61 1043.82,554.16"/>
    </edge>
    <edge id=":667357325_10" function="internal">
        <lane id=":667357325_10_0" index="0" speed="7.88" length="14.46" shape="1029.15,554.61 1033.14,554.96 1035.96,556.52 1037.63,559.28 1038.15,563.25"/>
    </edge>
    <edge id=":667357325_11" function="internal">
        <lane id=":667357325_11_0" index="0" speed="3.65" length="4.67" shape="1029.15,554.61 1030.39,555.34 1030.83,556.12 1030.48,556.94 1029.32,557.80"/>
    </edge>
    <edge id=":667357325_12" function="internal">
        <lane id=":667357325_12_0" index="0" speed="6.36" length="9.04" shape="1034.95,563.20 1034.63,560.72 1033.58,559.00 1031.81,558.02 1029.32,557.80"/>
    </edge>
    <edge id=":667357325_13" function="internal">
        <lane id=":667357325_13_0" index="0" speed="13.89" length="14.56" shape="1034.95,563.20 1034.96,548.65"/>
    </edge>
    <edge id=":667357325_14" function="internal">
        <lane id=":667357325_14_0" index="0" speed="8.11" length="3.98" shape="1034.95,563.20 1035.55,559.27"/>
    </edge>
    <edge id=":667357325_15" function="internal">
        <lane id=":667357325_15_0" index="0" speed="3.65" length="1.44" shape="1034.95,563.20 1035.76,562.02"/>
    </edge>
    <edge id=":667357325_18" function="internal">
        <lane id=":667357325_18_0" index="0" speed="8.11" length="10.40" shape="1035.55,559.27 1037.23,556.45 1039.99,554.75 1043.82,554.16"/>
    </edge>
    <edge id=":667357325_19" function="internal">
        <lane id=":667357325_19_0" index="0" speed="3.65" length="3.23" shape="1035.76,562.02 1036.57,561.63 1037.36,562.04 1038.15,563.25"/>
    </edge>
    <edge id=":667357383_0" function="internal">
        <lane id=":667357383_0_0" index="0" speed="13.89" length="14.35" shape="1421.16,548.81 1420.56,563.14"/>
    </edge>
    <edge id=":667357383_1" function="internal">
        <lane id=":667357383_1_0" index="0" speed="8.11" length="3.97" shape="1421.16,548.81 1420.43,552.57 1420.35,552.69"/>
    </edge>
    <edge id=":667357383_2" function="internal">
        <lane id=":667357383_2_0" index="0" speed="3.65" length="1.44" shape="1421.16,548.81 1420.30,549.97"/>
    </edge>
    <edge id=":667357383_9" function="internal">
        <lane id=":667357383_9_0" index="0" speed="8.11" length="10.24" shape="1420.35,552.69 1418.65,555.25 1415.82,556.83 1411.93,557.32"/>
    </edge>
    <edge id=":667357383_10" function="internal">
        <lane id=":667357383_10_0" index="0" speed="3.65" length="3.23" shape="1420.30,549.97 1419.49,550.33 1418.71,549.89 1417.96,548.65"/>
    </edge>
    <edge id=":667357383_3" function="internal">
        <lane id=":667357383_3_0" index="0" speed="6.63" length="9.18" shape="1411.97,554.12 1414.50,553.81 1416.33,552.79 1417.49,551.07 1417.96,548.65"/>
    </edge>
    <edge id=":667357383_4" function="internal">
        <lane id=":667357383_4_0" index="0" speed="7.96" length="14.28" shape="1411.97,554.12 1415.85,554.73 1418.58,556.43 1420.15,559.24 1420.56,563.14"/>
    </edge>
    <edge id=":667357383_5" function="internal">
        <lane id=":667357383_5_0" index="0" speed="3.65" length="4.67" shape="1411.97,554.12 1413.16,554.93 1413.55,555.74 1413.14,556.53 1411.93,557.32"/>
    </edge>
    <edge id=":667357383_6" function="internal">
        <lane id=":667357383_6_0" index="0" speed="6.46" length="9.03" shape="1417.36,563.03 1417.10,560.56 1416.11,558.78 1414.38,557.70 1411.93,557.32"/>
    </edge>
    <edge id=":667357383_7" function="internal">
        <lane id=":667357383_7_0" index="0" speed="13.89" length="14.38" shape="1417.36,563.03 1417.96,548.65"/>
    </edge>
    <edge id=":667357383_8" function="internal">
        <lane id=":667357383_8_0" index="0" speed="3.65" length="1.44" shape="1417.36,563.03 1418.21,561.86"/>
    </edge>
    <edge id=":667357383_11" function="internal">
        <lane id=":667357383_11_0" index="0" speed="3.65" length="3.23" shape="1418.21,561.86 1419.02,561.48 1419.81,561.91 1420.56,563.14"/>
    </edge>
    <edge id=":667357392_0" function="internal">
        <lane id=":667357392_0_0" index="0" speed="13.89" length="14.57" shape="1409.50,828.38 1394.99,827.10"/>
    </edge>
    <edge id=":667357392_1" function="internal">
        <lane id=":667357392_1_0" index="0" speed="8.03" length="4.18" shape="1409.50,828.38 1405.70,827.55 1405.46,827.38"/>
    </edge>
    <edge id=":667357392_2" function="internal">
        <lane id=":667357392_2_0" index="0" speed="3.65" length="1.44" shape="1409.50,828.38 1408.36,827.50"/>
    </edge>
    <edge id=":667357392_9" function="internal">
        <lane id=":667357392_9_0" index="0" speed="8.03" length="10.11" shape="1405.46,827.38 1403.08,825.69 1401.62,822.79 1401.34,818.86"/>
    </edge>
    <edge id=":667357392_10" function="internal">
        <lane id=":667357392_10_0" index="0" speed="3.65" length="3.23" shape="1408.36,827.50 1408.02,826.67 1408.47,825.90 1409.73,825.19"/>
    </edge>
    <edge id=":667357392_3" function="internal">
        <lane id=":667357392_3_0" index="0" speed="6.55" length="9.14" shape="1404.53,819.08 1404.71,821.60 1405.64,823.46 1407.31,824.66 1409.73,825.19"/>
    </edge>
    <edge id=":667357392_4" function="internal">
        <lane id=":667357392_4_0" index="0" speed="7.93" length="14.34" shape="1404.53,819.08 1403.71,822.94 1401.84,825.57 1398.94,826.95 1394.99,827.10"/>
    </edge>
    <edge id=":667357392_5" function="internal">
        <lane id=":667357392_5_0" index="0" speed="3.65" length="4.67" shape="1404.53,819.08 1403.65,820.22 1402.83,820.57 1402.06,820.11 1401.34,818.86"/>
    </edge>
    <edge id=":667357392_6" function="internal">
        <lane id=":667357392_6_0" index="0" speed="6.43" length="9.03" shape="1395.33,823.91 1397.81,823.82 1399.65,822.95 1400.82,821.30 1401.34,818.86"/>
    </edge>
    <edge id=":667357392_7" function="internal">
        <lane id=":667357392_7_0" index="0" speed="13.89" length="14.46" shape="1395.33,823.91 1409.73,825.19"/>
    </edge>