<?xml version="1.0" encoding="UTF-8"?>

<!-- generated on 2022-06-16 16:55:08 by Eclipse SUMO netconvert Version 1.13.0
<configuration xmlns:xsi="http://www.w3.org/2001/XMLSchema-instance" xsi:noNamespaceSchemaLocation="http://sumo.dlr.de/xsd/netconvertConfiguration.xsd">

    <input>
        <node-files value="iit_madras.nod.xml"/>
        <edge-files value="iit_madras.edg.xml"/>
    </input>

    <output>
        <output-file value="iit_madras.net.xml"/>
    </output>

    <report>
        <aggregate-warnings value="5"/>
    </report>

</configuration>
-->

<net version="1.9" junctionCornerDetail="5" limitTurnSpeed="5.50" xmlns:xsi="http://www.w3.org/2001/XMLSchema-instance" xsi:noNamespaceSchemaLocation="http://sumo.dlr.de/xsd/net_file.xsd">

    <location netOffset="1045.62,1192.25" convBoundary="0.00,0.00,2092.35,2391.29" origBoundary="-1045.62,-1192.25,1046.73,1199.05" projParameter="!"/>

    <edge id=":1515242053_0" function="internal">
        <lane id=":1515242053_0_0" index="0" speed="3.65" length="4.67" shape="1698.43,-0.44 1699.53,-1.37 1700.41,-1.54 1701.07,-0.93 1701.50,0.44"/>
    </edge>
    <edge id=":2018053792_0" function="internal">
        <lane id=":2018053792_0_0" index="0" speed="13.89" length="0.27" shape="0.64,409.76 0.63,409.67 0.63,409.62 0.62,409.56 0.60,409.49"/>
    </edge>
    <edge id=":2018053792_1" function="internal">
        <lane id=":2018053792_1_0" index="0" speed="13.89" length="0.82" shape="3.72,408.77 3.77,409.01 3.80,409.17 3.82,409.33 3.83,409.58"/>
    </edge>
    <edge id=":2164168433_0" function="internal">
        <lane id=":2164168433_0_0" index="0" speed="3.65" length="4.67" shape="1043.69,82.82 1042.88,84.01 1042.07,84.39 1041.28,83.98 1040.49,82.77"/>
    </edge>
    <edge id=":2164168455_0" function="internal">
        <lane id=":2164168455_0_0" index="0" speed="3.65" length="4.67" shape="1084.97,198.73 1084.37,197.42 1084.45,196.53 1085.21,196.06 1086.66,196.02"/>
    </edge>
    <edge id=":2166694724_0" function="internal">
        <lane id=":2166694724_0_0" index="0" speed="6.38" length="9.04" shape="1299.48,604.39 1299.04,601.93 1297.92,600.25 1296.12,599.35 1293.62,599.22"/>
    </edge>
    <edge id=":2166694724_1" function="internal">
        <lane id=":2166694724_1_0" index="0" speed="8.23" length="14.28" shape="1299.48,604.39 1299.88,600.45 1301.38,597.51 1303.96,595.58 1307.64,594.65"/>
    </edge>
    <edge id=":2166694724_2" function="internal">
        <lane id=":2166694724_2_0" index="0" speed="3.65" length="4.67" shape="1299.48,604.39 1300.24,603.17 1301.03,602.74 1301.84,603.12 1302.68,604.29"/>
    </edge>
    <edge id=":2166694724_3" function="internal">
        <lane id=":2166694724_3_0" index="0" speed="6.78" length="9.37" shape="1307.96,597.84 1305.58,598.45 1303.90,599.72 1302.94,601.67 1302.68,604.29"/>
    </edge>
    <edge id=":2166694724_4" function="internal">
        <lane id=":2166694724_4_0" index="0" speed="13.89" length="14.40" shape="1307.96,597.84 1293.62,599.22"/>
    </edge>
    <edge id=":2166694724_5" function="internal">
        <lane id=":2166694724_5_0" index="0" speed="3.65" length="1.44" shape="1307.96,597.84 1306.68,597.16"/>
    </edge>
    <edge id=":2166694724_9" function="internal">
        <lane id=":2166694724_9_0" index="0" speed="3.65" length="3.23" shape="1306.68,597.16 1306.20,596.40 1306.52,595.57 1307.64,594.65"/>
    </edge>
    <edge id=":2166694724_6" function="internal">
        <lane id=":2166694724_6_0" index="0" speed="13.89" length="14.38" shape="1293.32,596.04 1307.64,594.65"/>
    </edge>
    <edge id=":2166694724_7" function="internal">
        <lane id=":2166694724_7_0" index="0" speed="7.89" length="4.09" shape="1293.32,596.04 1297.31,596.23 1297.40,596.28"/>
    </edge>
    <edge id=":2166694724_8" function="internal">
        <lane id=":2166694724_8_0" index="0" speed="3.65" length="1.44" shape="1293.32,596.04 1294.59,596.72"/>
    </edge>
    <edge id=":2166694724_10" function="internal">
        <lane id=":2166694724_10_0" index="0" speed="7.89" length="10.34" shape="1297.40,596.28 1300.19,597.68 1301.98,600.36 1302.68,604.29"/>
    </edge>
    <edge id=":2166694724_11" function="internal">
        <lane id=":2166694724_11_0" index="0" speed="3.65" length="3.23" shape="1294.59,596.72 1295.07,597.48 1294.74,598.31 1293.62,599.22"/>
    </edge>
    <edge id=":2166694752_0" function="internal">
        <lane id=":2166694752_0_0" index="0" speed="3.65" length="4.67" shape="1186.60,682.64 1185.44,681.78 1185.08,680.97 1185.51,680.19 1186.75,679.44"/>
    </edge>
    <edge id=":2166703022_0" function="internal">
        <lane id=":2166703022_0_0" index="0" speed="13.89" length="0.10" shape="1521.19,521.15 1521.19,521.15"/>
    </edge>
    <edge id=":2166703022_1" function="internal">
        <lane id=":2166703022_1_0" index="0" speed="13.89" length="0.10" shape="1524.39,521.08 1524.39,521.08"/>
    </edge>
    <edge id=":2167078769_0" function="internal">
        <lane id=":2167078769_0_0" index="0" speed="3.65" length="4.67" shape="1315.41,186.57 1316.20,185.36 1317.00,184.96 1317.80,185.36 1318.61,186.55"/>
    </edge>
    <edge id=":2167078770_0" function="internal">
        <lane id=":2167078770_0_0" index="0" speed="13.89" length="15.51" shape="1323.63,248.90 1319.88,248.12 1316.08,247.13 1312.32,245.98 1308.70,244.73"/>
    </edge>
    <edge id=":2167078770_1" function="internal">
        <lane id=":2167078770_1_0" index="0" speed="8.85" length="3.92" shape="1323.63,248.90 1320.17,247.67 1319.99,247.50"/>
    </edge>
    <edge id=":2167078770_2" function="internal">
        <lane id=":2167078770_2_0" index="0" speed="3.65" length="1.44" shape="1323.63,248.90 1322.58,247.90"/>
    </edge>
    <edge id=":2167078770_9" function="internal">
        <lane id=":2167078770_9_0" index="0" speed="8.85" length="11.27" shape="1319.99,247.50 1317.70,245.38 1316.20,242.01 1315.68,237.58"/>
    </edge>
    <edge id=":2167078770_10" function="internal">
        <lane id=":2167078770_10_0" index="0" speed="3.65" length="3.23" shape="1322.58,247.90 1322.33,247.05 1322.86,246.33 1324.18,245.75"/>
    </edge>
    <edge id=":2167078770_3" function="internal">
        <lane id=":2167078770_3_0" index="0" speed="7.51" length="10.68" shape="1318.88,237.57 1319.23,240.80 1320.23,243.24 1321.88,244.89 1324.18,245.75"/>
    </edge>
    <edge id=":2167078770_4" function="internal">
        <lane id=":2167078770_4_0" index="0" speed="7.52" length="15.76" shape="1318.88,237.57 1318.27,242.10 1316.37,244.80 1313.18,245.68 1308.70,244.73"/>
    </edge>
    <edge id=":2167078770_5" function="internal">
        <lane id=":2167078770_5_0" index="0" speed="3.65" length="4.67" shape="1318.88,237.57 1318.09,238.77 1317.29,239.17 1316.49,238.78 1315.68,237.58"/>
    </edge>
    <edge id=":2167078770_6" function="internal">
        <lane id=":2167078770_6_0" index="0" speed="5.88" length="9.11" shape="1309.80,241.73 1312.39,242.28 1314.23,241.77 1315.33,240.20 1315.68,237.58"/>
    </edge>
    <edge id=":2167078770_7" function="internal">
        <lane id=":2167078770_7_0" index="0" speed="13.89" length="14.95" shape="1309.80,241.73 1313.33,242.95 1316.90,244.05 1320.51,244.99 1324.18,245.75"/>
    </edge>
    <edge id=":2167078770_8" function="internal">
        <lane id=":2167078770_8_0" index="0" speed="3.65" length="1.44" shape="1309.80,241.73 1310.65,242.89"/>
    </edge>
    <edge id=":2167078770_11" function="internal">
        <lane id=":2167078770_11_0" index="0" speed="3.65" length="3.23" shape="1310.65,242.89 1310.75,243.78 1310.10,244.39 1308.70,244.73"/>
    </edge>
    <edge id=":2167078771_0" function="internal">
        <lane id=":2167078771_0_0" index="0" speed="13.89" length="14.34" shape="1091.38,276.92 1091.22,262.58"/>
    </edge>
    <edge id=":2167078771_1" function="internal">
        <lane id=":2167078771_1_0" index="0" speed="7.89" length="4.00" shape="1091.38,276.92 1091.94,272.96"/>
    </edge>
    <edge id=":2167078771_2" function="internal">
        <lane id=":2167078771_2_0" index="0" speed="3.65" length="1.44" shape="1091.38,276.92 1092.18,275.71"/>
    </edge>
    <edge id=":2167078771_9" function="internal">
        <lane id=":2167078771_9_0" index="0" speed="7.89" length="10.45" shape="1091.94,272.96 1093.64,270.21 1096.48,268.68 1100.46,268.36"/>
    </edge>
    <edge id=":2167078771_10" function="internal">
        <lane id=":2167078771_10_0" index="0" speed="3.65" length="3.23" shape="1092.18,275.71 1092.98,275.31 1093.78,275.71 1094.58,276.91"/>
    </edge>
    <edge id=":2167078771_3" function="internal">
        <lane id=":2167078771_3_0" index="0" speed="6.37" length="9.04" shape="1100.26,271.55 1097.77,271.75 1095.99,272.71 1094.93,274.43 1094.58,276.91"/>
    </edge>
    <edge id=":2167078771_4" function="internal">
        <lane id=":2167078771_4_0" index="0" speed="8.27" length="14.27" shape="1100.26,271.55 1096.37,270.78 1093.56,269.03 1091.85,266.30 1091.22,262.58"/>
    </edge>
    <edge id=":2167078771_5" function="internal">
        <lane id=":2167078771_5_0" index="0" speed="3.65" length="4.67" shape="1100.26,271.55 1099.11,270.68 1098.76,269.86 1099.21,269.08 1100.46,268.36"/>
    </edge>
    <edge id=":2167078771_6" function="internal">
        <lane id=":2167078771_6_0" index="0" speed="6.83" length="9.42" shape="1094.42,262.52 1094.84,264.93 1095.98,266.71 1097.86,267.86 1100.46,268.36"/>
    </edge>
    <edge id=":2167078771_7" function="internal">
        <lane id=":2167078771_7_0" index="0" speed="13.89" length="14.39" shape="1094.42,262.52 1094.58,276.91"/>
    </edge>
    <edge id=":2167078771_8" function="internal">
        <lane id=":2167078771_8_0" index="0" speed="3.65" length="1.44" shape="1094.42,262.52 1093.64,263.73"/>
    </edge>
    <edge id=":2167078771_11" function="internal">
        <lane id=":2167078771_11_0" index="0" speed="3.65" length="3.23" shape="1093.64,263.73 1092.85,264.15 1092.04,263.76 1091.22,262.58"/>
    </edge>
    <edge id=":2167078772_0" function="internal">
        <lane id=":2167078772_0_0" index="0" speed="3.65" length="4.67" shape="1146.80,271.25 1147.95,272.13 1148.29,272.95 1147.85,273.72 1146.60,274.45"/>
    </edge>
    <edge id=":268789836_0" function="internal">
        <lane id=":268789836_0_0" index="0" speed="4.03" length="4.23" shape="2085.66,2378.95 2086.91,2378.56 2087.46,2377.97 2087.31,2377.18 2086.45,2376.19"/>
    </edge>
    <edge id=":268789875_0" function="internal">
        <lane id=":268789875_0_0" index="0" speed="7.57" length="10.41" shape="1355.15,967.86 1353.55,966.02 1351.47,965.02 1348.91,964.84 1345.88,965.51"/>
    </edge>
    <edge id=":268789875_1" function="internal">
        <lane id=":268789875_1_0" index="0" speed="13.89" length="14.65" shape="1355.15,967.86 1347.34,955.47"/>
    </edge>
    <edge id=":268789875_2" function="internal">
        <lane id=":268789875_2_0" index="0" speed="3.65" length="1.44" shape="1355.15,967.86 1355.21,966.42"/>
    </edge>
    <edge id=":268789875_9" function="internal">
        <lane id=":268789875_9_0" index="0" speed="3.65" length="3.23" shape="1355.21,966.42 1355.69,965.66 1356.58,965.59 1357.89,966.20"/>
    </edge>
    <edge id=":268789875_3" function="internal">
        <lane id=":268789875_3_0" index="0" speed="13.89" length="14.75" shape="1350.02,953.72 1357.89,966.20"/>
    </edge>
    <edge id=":268789875_4" function="internal">
        <lane id=":268789875_4_0" index="0" speed="7.62" length="4.47" shape="1350.02,953.72 1351.85,957.68 1351.85,957.79"/>
    </edge>
    <edge id=":268789875_5" function="internal">
        <lane id=":268789875_5_0" index="0" speed="3.65" length="1.44" shape="1350.02,953.72 1350.00,955.17"/>
    </edge>
    <edge id=":268789875_10" function="internal">
        <lane id=":268789875_10_0" index="0" speed="7.62" length="10.81" shape="1351.85,957.79 1351.78,960.96 1349.79,963.57 1345.88,965.51"/>
    </edge>
    <edge id=":268789875_11" function="internal">
        <lane id=":268789875_11_0" index="0" speed="3.65" length="3.23" shape="1350.00,955.17 1349.55,955.94 1348.66,956.04 1347.34,955.47"/>
    </edge>
    <edge id=":268789875_6" function="internal">
        <lane id=":268789875_6_0" index="0" speed="6.02" length="9.08" shape="1344.88,962.47 1347.20,961.32 1348.38,959.77 1348.43,957.82 1347.34,955.47"/>
    </edge>
    <edge id=":268789875_7" function="internal">
        <lane id=":268789875_7_0" index="0" speed="8.91" length="14.76" shape="1344.88,962.47 1349.05,961.59 1352.61,961.92 1355.56,963.46 1357.89,966.20"/>
    </edge>
    <edge id=":268789875_8" function="internal">
        <lane id=":268789875_8_0" index="0" speed="3.65" length="4.67" shape="1344.88,962.47 1346.27,962.85 1346.90,963.48 1346.77,964.37 1345.88,965.51"/>
    </edge>
    <edge id=":268789877_0" function="internal">
        <lane id=":268789877_0_0" index="0" speed="13.89" length="17.20" shape="1885.34,2131.03 1881.46,2129.77 1877.09,2128.67 1872.68,2127.73 1868.66,2126.93"/>
    </edge>
    <edge id=":268789877_1" function="internal">
        <lane id=":268789877_1_0" index="0" speed="13.89" length="3.30" shape="1885.34,2131.03 1882.50,2129.36"/>
    </edge>
    <edge id=":268789877_2" function="internal">
        <lane id=":268789877_2_0" index="0" speed="3.65" length="1.44" shape="1885.34,2131.03 1884.51,2129.86"/>
    </edge>
    <edge id=":268789877_9" function="internal">
        <lane id=":268789877_9_0" index="0" speed="13.89" length="14.71" shape="1882.50,2129.36 1881.77,2128.93 1878.22,2125.75 1874.98,2122.17 1872.29,2118.86"/>
    </edge>
    <edge id=":268789877_10" function="internal">
        <lane id=":268789877_10_0" index="0" speed="3.65" length="3.23" shape="1884.51,2129.86 1884.42,2128.97 1885.08,2128.36 1886.49,2128.05"/>
    </edge>
    <edge id=":268789877_3" function="internal">
        <lane id=":268789877_3_0" index="0" speed="13.89" length="16.34" shape="1874.80,2116.88 1877.28,2120.03 1880.06,2123.26 1883.13,2126.10 1886.49,2128.05"/>
    </edge>
    <edge id=":268789877_4" function="internal">
        <lane id=":268789877_4_0" index="0" speed="7.49" length="20.40" shape="1874.80,2116.88 1878.35,2122.50 1878.51,2126.05 1875.28,2127.53 1868.66,2126.93"/>
    </edge>
    <edge id=":268789877_5" function="internal">
        <lane id=":268789877_5_0" index="0" speed="3.65" length="4.67" shape="1874.80,2116.88 1874.92,2118.32 1874.54,2119.12 1873.66,2119.31 1872.29,2118.86"/>
    </edge>
    <edge id=":268789877_6" function="internal">
        <lane id=":268789877_6_0" index="0" speed="5.46" length="10.01" shape="1869.27,2123.79 1872.52,2124.08 1874.11,2123.36 1874.03,2121.62 1872.29,2118.86"/>
    </edge>
    <edge id=":268789877_7" function="internal">
        <lane id=":268789877_7_0" index="0" speed="13.89" length="17.75" shape="1869.27,2123.79 1873.38,2124.61 1877.97,2125.61 1882.52,2126.76 1886.49,2128.05"/>
    </edge>
    <edge id=":268789877_8" function="internal">
        <lane id=":268789877_8_0" index="0" speed="3.65" length="1.44" shape="1869.27,2123.79 1870.30,2124.81"/>
    </edge>
    <edge id=":268789877_11" function="internal">
        <lane id=":268789877_11_0" index="0" speed="3.65" length="3.23" shape="1870.30,2124.81 1870.54,2125.67 1869.99,2126.38 1868.66,2126.93"/>
    </edge>
    <edge id=":268789882_0" function="internal">
        <lane id=":268789882_0_0" index="0" speed="5.90" length="9.11" shape="1656.61,1592.61 1654.70,1590.79 1652.86,1590.24 1651.09,1590.97 1649.38,1592.98"/>
    </edge>
    <edge id=":268789882_1" function="internal">
        <lane id=":268789882_1_0" index="0" speed="13.89" length="14.84" shape="1656.61,1592.61 1647.05,1581.25"/>
    </edge>
    <edge id=":268789882_2" function="internal">
        <lane id=":268789882_2_0" index="0" speed="3.65" length="1.44" shape="1656.61,1592.61 1656.49,1591.17"/>
    </edge>
    <edge id=":268789882_9" function="internal">
        <lane id=":268789882_9_0" index="0" speed="3.65" length="3.23" shape="1656.49,1591.17 1656.87,1590.36 1657.75,1590.18 1659.12,1590.63"/>
    </edge>
    <edge id=":268789882_3" function="internal">
        <lane id=":268789882_3_0" index="0" speed="13.89" length="15.08" shape="1649.41,1579.09 1659.12,1590.63"/>
    </edge>
    <edge id=":268789882_4" function="internal">
        <lane id=":268789882_4_0" index="0" speed="9.14" length="3.98" shape="1649.41,1579.09 1651.35,1582.08 1651.43,1582.49"/>
    </edge>
    <edge id=":268789882_5" function="internal">
        <lane id=":268789882_5_0" index="0" speed="3.65" length="1.44" shape="1649.41,1579.09 1649.63,1580.52"/>
    </edge>
    <edge id=":268789882_10" function="internal">
        <lane id=":268789882_10_0" index="0" speed="9.14" length="11.06" shape="1651.43,1582.49 1652.00,1585.39 1651.34,1589.02 1649.38,1592.98"/>
    </edge>
    <edge id=":268789882_11" function="internal">
        <lane id=":268789882_11_0" index="0" speed="3.65" length="3.23" shape="1649.63,1580.52 1649.31,1581.35 1648.45,1581.60 1647.05,1581.25"/>
    </edge>
    <edge id=":268789882_6" function="internal">
        <lane id=":268789882_6_0" index="0" speed="7.84" length="10.83" shape="1646.68,1591.27 1648.17,1588.33 1648.72,1585.68 1648.35,1583.32 1647.05,1581.25"/>
    </edge>
    <edge id=":268789882_7" function="internal">
        <lane id=":268789882_7_0" index="0" speed="7.53" length="15.68" shape="1646.68,1591.27 1649.62,1587.81 1652.67,1586.55 1655.84,1587.49 1659.12,1590.63"/>
    </edge>
    <edge id=":268789882_8" function="internal">
        <lane id=":268789882_8_0" index="0" speed="3.65" length="4.67" shape="1646.68,1591.27 1648.00,1590.68 1648.89,1590.77 1649.35,1591.54 1649.38,1592.98"/>
    </edge>
    <edge id=":268789942_0" function="internal">
        <lane id=":268789942_0_0" index="0" speed="13.89" length="15.76" shape="1931.21,2148.66 1916.50,2143.01"/>
    </edge>
    <edge id=":268789942_1" function="internal">
        <lane id=":268789942_1_0" index="0" speed="11.40" length="3.52" shape="1931.21,2148.66 1928.38,2146.97 1928.23,2146.80"/>
    </edge>
    <edge id=":268789942_2" function="internal">
        <lane id=":268789942_2_0" index="0" speed="3.65" length="1.44" shape="1931.21,2148.66 1930.37,2147.49"/>
    </edge>
    <edge id=":268789942_9" function="internal">
        <lane id=":268789942_9_0" index="0" speed="11.40" length="12.63" shape="1928.23,2146.80 1926.00,2144.25 1924.07,2140.49 1922.58,2135.70"/>
    </edge>
    <edge id=":268789942_10" function="internal">
        <lane id=":268789942_10_0" index="0" speed="3.65" length="3.23" shape="1930.37,2147.49 1930.29,2146.60 1930.95,2145.99 1932.35,2145.68"/>
    </edge>
    <edge id=":268789942_3" function="internal">
        <lane id=":268789942_3_0" index="0" speed="10.29" length="13.06" shape="1925.69,2134.96 1926.91,2139.00 1928.43,2142.13 1930.24,2144.35 1932.35,2145.68"/>
    </edge>
    <edge id=":268789942_4" function="internal">
        <lane id=":268789942_4_0" index="0" speed="7.38" length="17.39" shape="1925.69,2134.96 1926.26,2140.25 1924.91,2143.35 1921.66,2144.27 1916.50,2143.01"/>
    </edge>
    <edge id=":268789942_5" function="internal">
        <lane id=":268789942_5_0" index="0" speed="3.65" length="4.67" shape="1925.69,2134.96 1925.19,2136.31 1924.51,2136.89 1923.64,2136.68 1922.58,2135.70"/>
    </edge>
    <edge id=":268789942_6" function="internal">
        <lane id=":268789942_6_0" index="0" speed="5.59" length="9.34" shape="1917.64,2140.02 1920.42,2140.70 1922.16,2140.20 1922.88,2138.54 1922.58,2135.70"/>
    </edge>
    <edge id=":268789942_7" function="internal">
        <lane id=":268789942_7_0" index="0" speed="13.89" length="15.76" shape="1917.64,2140.02 1932.35,2145.68"/>
    </edge>
    <edge id=":268789942_8" function="internal">
        <lane id=":268789942_8_0" index="0" speed="3.65" length="1.44" shape="1917.64,2140.02 1918.48,2141.20"/>
    </edge>
    <edge id=":268789942_11" function="internal">
        <lane id=":268789942_11_0" index="0" speed="3.65" length="3.23" shape="1918.48,2141.20 1918.56,2142.09 1917.90,2142.69 1916.50,2143.01"/>
    </edge>
    <edge id=":268789950_0" function="internal">
        <lane id=":268789950_0_0" index="0" speed="5.54" length="9.45" shape="1783.61,1548.21 1782.26,1545.60 1780.75,1544.63 1779.09,1545.30 1777.28,1547.61"/>
    </edge>
    <edge id=":268789950_1" function="internal">
        <lane id=":268789950_1_0" index="0" speed="12.84" length="16.49" shape="1783.61,1548.21 1782.06,1543.23 1781.34,1538.90 1781.47,1535.21 1782.43,1532.16"/>
    </edge>
    <edge id=":268789950_2" function="internal">
        <lane id=":268789950_2_0" index="0" speed="3.65" length="4.67" shape="1783.61,1548.21 1783.94,1546.80 1784.55,1546.15 1785.44,1546.25 1786.61,1547.09"/>
    </edge>
    <edge id=":268789950_3" function="internal">
        <lane id=":268789950_3_0" index="0" speed="11.80" length="13.86" shape="1785.28,1533.61 1784.57,1536.03 1784.55,1539.08 1785.23,1542.77 1786.61,1547.09"/>
    </edge>
    <edge id=":268789950_4" function="internal">
        <lane id=":268789950_4_0" index="0" speed="13.89" length="16.13" shape="1785.28,1533.61 1777.28,1547.61"/>
    </edge>
    <edge id=":268789950_5" function="internal">
        <lane id=":268789950_5_0" index="0" speed="3.65" length="1.44" shape="1785.28,1533.61 1784.03,1534.32"/>
    </edge>
    <edge id=":268789950_9" function="internal">
        <lane id=":268789950_9_0" index="0" speed="3.65" length="3.23" shape="1784.03,1534.32 1783.13,1534.31 1782.60,1533.59 1782.43,1532.16"/>
    </edge>
    <edge id=":268789950_6" function="internal">
        <lane id=":268789950_6_0" index="0" speed="13.89" length="15.89" shape="1774.54,1545.95 1782.43,1532.16"/>
    </edge>
    <edge id=":268789950_7" function="internal">
        <lane id=":268789950_7_0" index="0" speed="7.38" length="4.82" shape="1774.54,1545.95 1777.52,1542.16"/>
    </edge>
    <edge id=":268789950_8" function="internal">
        <lane id=":268789950_8_0" index="0" speed="3.65" length="1.44" shape="1774.54,1545.95 1775.85,1545.34"/>
    </edge>
    <edge id=":268789950_10" function="internal">
        <lane id=":268789950_10_0" index="0" speed="7.38" length="13.19" shape="1777.52,1542.16 1778.00,1541.56 1781.16,1540.28 1784.04,1542.13 1786.61,1547.09"/>
    </edge>
    <edge id=":268789950_11" function="internal">
        <lane id=":268789950_11_0" index="0" speed="3.65" length="3.23" shape="1775.85,1545.34 1776.74,1545.41 1777.21,1546.17 1777.28,1547.61"/>
    </edge>
    <edge id=":268789954_0" function="internal">
        <lane id=":268789954_0_0" index="0" speed="6.06" length="9.07" shape="1837.70,1454.46 1835.68,1452.85 1833.77,1452.43 1831.96,1453.18 1830.25,1455.11"/>
    </edge>
    <edge id=":268789954_1" function="internal">
        <lane id=":268789954_1_0" index="0" speed="13.89" length="14.93" shape="1837.70,1454.46 1835.02,1451.84 1832.13,1449.48 1829.05,1447.39 1825.77,1445.59"/>
    </edge>
    <edge id=":268789954_2" function="internal">
        <lane id=":268789954_2_0" index="0" speed="3.65" length="1.44" shape="1837.70,1454.46 1837.46,1453.03"/>
    </edge>
    <edge id=":268789954_9" function="internal">
        <lane id=":268789954_9_0" index="0" speed="3.65" length="3.23" shape="1837.46,1453.03 1837.76,1452.19 1838.62,1451.94 1840.02,1452.26"/>
    </edge>
    <edge id=":268789954_3" function="internal">
        <lane id=":268789954_3_0" index="0" speed="13.89" length="16.08" shape="1827.17,1442.72 1830.60,1444.62 1834.00,1446.95 1837.20,1449.54 1840.02,1452.26"/>
    </edge>
    <edge id=":268789954_4" function="internal">
        <lane id=":268789954_4_0" index="0" speed="7.87" length="4.56" shape="1827.17,1442.72 1830.55,1445.05 1830.78,1445.44"/>
    </edge>
    <edge id=":268789954_5" function="internal">
        <lane id=":268789954_5_0" index="0" speed="3.65" length="1.44" shape="1827.17,1442.72 1827.90,1443.96"/>
    </edge>
    <edge id=":268789954_10" function="internal">
        <lane id=":268789954_10_0" index="0" speed="7.87" length="10.46" shape="1830.78,1445.44 1832.19,1447.89 1832.09,1451.24 1830.25,1455.11"/>
    </edge>
    <edge id=":268789954_11" function="internal">
        <lane id=":268789954_11_0" index="0" speed="3.65" length="3.23" shape="1827.90,1443.96 1827.91,1444.86 1827.20,1445.40 1825.77,1445.59"/>
    </edge>
    <edge id=":268789954_6" function="internal">
        <lane id=":268789954_6_0" index="0" speed="6.35" length="9.37" shape="1827.58,1453.35 1828.75,1450.91 1828.84,1448.81 1827.85,1447.03 1825.77,1445.59"/>
    </edge>
    <edge id=":268789954_7" function="internal">
        <lane id=":268789954_7_0" index="0" speed="7.65" length="15.16" shape="1827.58,1453.35 1830.43,1450.13 1833.46,1448.87 1836.65,1449.58 1840.02,1452.26"/>
    </edge>
    <edge id=":268789954_8" function="internal">
        <lane id=":268789954_8_0" index="0" speed="3.65" length="4.67" shape="1827.58,1453.35 1828.91,1452.79 1829.80,1452.89 1830.25,1453.67 1830.25,1455.11"/>
    </edge>
    <edge id=":268789959_0" function="internal">
        <lane id=":268789959_0_0" index="0" speed="5.49" length="9.62" shape="2033.20,2328.12 2030.72,2326.36 2028.96,2326.19 2027.92,2327.62 2027.59,2330.64"/>
    </edge>
    <edge id=":268789959_1" function="internal">
        <lane id=":268789959_1_0" index="0" speed="11.43" length="13.44" shape="2033.20,2328.12 2029.30,2324.49 2026.52,2321.62 2024.86,2319.52 2024.31,2318.19"/>
    </edge>
    <edge id=":268789959_2" function="internal">
        <lane id=":268789959_2_0" index="0" speed="13.89" length="12.42" shape="2027.51,2318.22 2027.59,2330.64"/>
    </edge>
    <edge id=":268789959_3" function="internal">
        <lane id=":268789959_3_0" index="0" speed="3.65" length="1.02" shape="2027.51,2318.22 2026.94,2319.06"/>
    </edge>
    <edge id=":268789959_4" function="internal">
        <lane id=":268789959_4_0" index="0" speed="3.65" length="3.65" shape="2026.94,2319.06 2026.70,2319.41 2025.89,2319.80 2025.10,2319.39 2024.31,2318.19"/>
    </edge>
    <edge id=":268789961_0" function="internal">
        <lane id=":268789961_0_0" index="0" speed="6.05" length="9.07" shape="1742.55,1610.36 1741.64,1607.95 1740.22,1606.61 1738.28,1606.34 1735.83,1607.15"/>
    </edge>
    <edge id=":268789961_1" function="internal">
        <lane id=":268789961_1_0" index="0" speed="13.89" length="18.87" shape="1742.55,1610.36 1741.51,1606.14 1740.17,1601.24 1738.73,1596.36 1737.42,1592.21"/>
    </edge>
    <edge id=":268789961_2" function="internal">
        <lane id=":268789961_2_0" index="0" speed="13.89" length="3.60" shape="1742.55,1610.36 1742.41,1606.76"/>
    </edge>
    <edge id=":268789961_3" function="internal">
        <lane id=":268789961_3_0" index="0" speed="3.65" length="1.44" shape="1742.55,1610.36 1743.07,1609.02"/>
    </edge>
    <edge id=":268789961_16" function="internal">
        <lane id=":268789961_16_0" index="0" speed="13.89" length="15.57" shape="1742.41,1606.76 1742.38,1606.02 1743.24,1600.92 1744.78,1595.92 1746.67,1591.92"/>
    </edge>
    <edge id=":268789961_17" function="internal">
        <lane id=":268789961_17_0" index="0" speed="3.65" length="3.23" shape="1743.07,1609.02 1743.77,1608.45 1744.64,1608.67 1745.68,1609.67"/>
    </edge>
    <edge id=":268789961_4" function="internal">
        <lane id=":268789961_4_0" index="0" speed="13.75" length="16.82" shape="1749.41,1593.58 1747.58,1597.21 1746.17,1601.40 1745.44,1605.70 1745.68,1609.67"/>
    </edge>
    <edge id=":268789961_5" function="internal">
        <lane id=":268789961_5_0" index="0" speed="13.89" length="19.35" shape="1749.41,1593.58 1746.83,1597.19 1743.33,1601.13 1739.48,1604.69 1735.83,1607.15"/>
    </edge>
    <edge id=":268789961_6" function="internal">
        <lane id=":268789961_6_0" index="0" speed="7.39" length="18.40" shape="1749.41,1593.58 1745.86,1598.12 1742.67,1599.41 1739.86,1597.44 1737.42,1592.21"/>
    </edge>
    <edge id=":268789961_7" function="internal">
        <lane id=":268789961_7_0" index="0" speed="3.65" length="4.67" shape="1749.41,1593.58 1748.10,1594.19 1747.21,1594.12 1746.74,1593.36 1746.67,1591.92"/>
    </edge>
    <edge id=":268789961_8" function="internal">
        <lane id=":268789961_8_0" index="0" speed="5.51" length="9.53" shape="1740.46,1591.21 1741.73,1593.92 1743.18,1594.94 1744.83,1594.28 1746.67,1591.92"/>
    </edge>
    <edge id=":268789961_9" function="internal">
        <lane id=":268789961_9_0" index="0" speed="13.89" length="19.18" shape="1740.46,1591.21 1741.78,1595.41 1743.25,1600.39 1744.62,1605.39 1745.68,1609.67"/>
    </edge>
    <edge id=":268789961_10" function="internal">
        <lane id=":268789961_10_0" index="0" speed="9.53" length="5.97" shape="1740.46,1591.21 1741.62,1596.61 1741.58,1597.06"/>
    </edge>
    <edge id=":268789961_11" function="internal">
        <lane id=":268789961_11_0" index="0" speed="3.65" length="1.44" shape="1740.46,1591.21 1740.08,1592.60"/>
    </edge>
    <edge id=":268789961_18" function="internal">
        <lane id=":268789961_18_0" index="0" speed="9.53" length="12.35" shape="1741.58,1597.06 1741.23,1601.06 1739.30,1604.57 1735.83,1607.15"/>
    </edge>
    <edge id=":268789961_19" function="internal">
        <lane id=":268789961_19_0" index="0" speed="3.65" length="3.23" shape="1740.08,1592.60 1739.44,1593.23 1738.56,1593.10 1737.42,1592.21"/>
    </edge>
    <edge id=":268789961_12" function="internal">
        <lane id=":268789961_12_0" index="0" speed="8.31" length="13.69" shape="1734.41,1604.28 1736.85,1602.41 1738.16,1599.77 1738.36,1596.37 1737.42,1592.21"/>
    </edge>
    <edge id=":268789961_13" function="internal">
        <lane id=":268789961_13_0" index="0" speed="13.89" length="17.58" shape="1734.41,1604.28 1737.85,1602.01 1741.25,1598.87 1744.29,1595.34 1746.67,1591.92"/>
    </edge>
    <edge id=":268789961_14" function="internal">