<edges>
<edge from="245674992" to="4348259319" id="245674992to4348259319" numLanes="1" shape="-205.04029776301468,382.6459461869672 -237.29759197845124,396.5067929509096 -359.0699295126833,440.11618253728375 -421.7109934835462,462.55672886641696 -450.005128033401,472.52842926001176 -523.1241875368287,492.6035235179588 -558.1721695492743,502.75594749255106 -578.1386898974306,508.6199056576006 -610.581591342343,516.6153313168325 -658.8540531806648,527.0592900426127 -658.8540531806648,527.0592900426127" />
<edge from="245674992" to="667357325" id="245674992to667357325" numLanes="1" shape="-205.04029776301468,382.6459461869672 -33.92507937701885,312.38369503011927 39.53415289049735,282.8176409089938 129.18008628638927,245.41872536065057 237.78015986963874,203.67517684400082 257.0733814277337,185.44136448251083 275.74204909364926,167.77971669938415 292.8317116458202,120.0866933488287 294.1465392478858,97.98175758775324 296.67068289691815,55.51149950642139 307.1125116245821,-56.332607864867896 308.30134272866417,-140.175187014509 308.30134272866417,-140.175187014509" />
<edge from="245674992" to="667357318" id="245674992to667357318" numLanes="1" shape="-205.04029776301468,382.6459461869672 -208.14672582683852,290.08510387688875 -191.63887322088704,262.4947262168862 -140.54311248817248,213.49769282480702 -26.634867134445813,114.87697249511257 -25.022881591692567,100.93979790853336 -32.52314510027645,71.25592411821708 -25.191898011311423,57.726527446415275 -15.12745976872975,54.51710581080988 14.075514254916925,65.9381208345294 53.14632161927875,75.31473593600094 77.66662569652544,77.0813474226743 103.30560344399419,68.53737778961658 116.65682157146512,52.38953517889604 119.89415989420377,39.717369365505874 119.61000275268452,14.154784345068038 120.57010925270151,-2.3876461456529796 123.18763394915732,-18.49589923536405 125.31650736223673,-30.579066920559853 126.9372676644125,-38.50404965924099 130.08338514593197,-43.83417634712532 139.52708423539298,-47.036093219183385 144.15326124441344,-55.329121080227196 149.65411685040453,-89.08783576451242 156.09455818630522,-103.20440712524578 158.91051050351234,-121.20838221767917 154.29904173017712,-129.31363084865734 142.1091943771462,-138.402429276146 136.80963393853744,-145.08220471488312 131.521940507635,-223.05674242880195 131.1773091398063,-228.12374748429283 131.1773091398063,-228.12374748429283" />
<edge from="667357310" to="667357311" id="667357310to667357311" numLanes="1" shape="297.4226647641626,-503.4383078175597 363.73880734754493,-485.42836157185957" />
<edge from="667357310" to="6495983054" id="667357310to6495983054" numLanes="1" shape="297.4226647641626,-503.4383078175597 252.82963583193487,-372.22003244934604" />
<edge from="667357310" to="668660548" id="667357310to668660548" numLanes="1" shape="297.4226647641626,-503.4383078175597 304.9867213308462,-519.5501341777854 350.0415422707447,-636.8225987264886 350.0415422707447,-636.8225987264886" />
<edge from="667357311" to="667357310" id="667357311to667357310" numLanes="1" shape="363.73880734754493,-485.42836157185957 297.4226647641626,-503.4383078175597" />
<edge from="667357311" to="668699249" id="667357311to668699249" numLanes="1" shape="363.73880734754493,-485.42836157185957 322.61968957755016,-393.8019703840837 305.8483120765886,-328.1868059276603 306.4658106242423,-280.826873104088 306.70327958103735,-262.6822058008984 306.70327958103735,-262.6822058008984" />
<edge from="667357311" to="5879215650" id="667357311to5879215650" numLanes="1" shape="363.73880734754493,-485.42836157185957 374.467191362055,-516.8355015143752 380.202016197436,-531.9068291010335 380.202016197436,-531.9068291010335" />
<edge from="667357317" to="668699249" id="667357317to668699249" numLanes="1" shape="229.5990876641008,-259.6697115623392 306.70327958103735,-262.6822058008984" />
<edge from="667357317" to="6495983054" id="667357317to6495983054" numLanes="1" shape="229.5990876641008,-259.6697115623392 237.34533859213116,-326.6499275295064 252.82963583193487,-372.22003244934604 252.82963583193487,-372.22003244934604" />
<edge from="667357317" to="667357318" id="667357317to667357318" numLanes="1" shape="229.5990876641008,-259.6697115623392 221.73548632202437,-248.3928540404886 208.81207493616967,-239.5800996166654 200.79288218618603,-236.05198914883658 191.67742972209817,-231.7910920488648 172.63804297760362,-230.16875469172373 131.1773091398063,-228.12374748429283 131.1773091398063,-228.12374748429283" />
<edge from="667357318" to="667357317" id="667357318to667357317" numLanes="1" shape="131.1773091398063,-228.12374748429283 172.63804297760362,-230.16875469172373 191.67742972209817,-231.7910920488648 200.79288218618603,-236.05198914883658 208.81207493616967,-239.5800996166654 221.73548632202437,-248.3928540404886 229.5990876641008,-259.6697115623392 229.5990876641008,-259.6697115623392" />
<edge from="667357318" to="245674992" id="667357318to245674992" numLanes="1" shape="131.1773091398063,-228.12374748429283 131.521940507635,-223.05674242880195 136.80963393853744,-145.08220471488312 142.1091943771462,-138.402429276146 154.29904173017712,-129.31363084865734 158.91051050351234,-121.20838221767917 156.09455818630522,-103.20440712524578 149.65411685040453,-89.08783576451242 144.15326124441344,-55.329121080227196 139.52708423539298,-47.036093219183385 130.08338514593197,-43.83417634712532 126.9372676644125,-38.50404965924099 125.31650736223673,-30.579066920559853 123.18763394915732,-18.49589923536405 120.57010925270151,-2.3876461456529796 119.61000275268452,14.154784345068038 119.89415989420377,39.717369365505874 116.65682157146512,52.38953517889604 103.30560344399419,68.53737778961658 77.66662569652544,77.0813474226743 53.14632161927875,75.31473593600094 14.075514254916925,65.9381208345294 -15.12745976872975,54.51710581080988 -25.191898011311423,57.726527446415275 -32.52314510027645,71.25592411821708 -25.022881591692567,100.93979790853336 -26.634867134445813,114.87697249511257 -140.54311248817248,213.49769282480702 -191.63887322088704,262.4947262168862 -208.14672582683852,290.08510387688875 -205.04029776301468,382.6459461869672 -205.04029776301468,382.6459461869672" />
<edge from="667357318" to="6495983060" id="667357318to6495983060" numLanes="1" shape="131.1773091398063,-228.12374748429283 153.6781276767142,-311.8221915611066 160.87789694446838,-381.36471757804975 160.87789694446838,-381.36471757804975" />
<edge from="667357325" to="668699249" id="667357325to668699249" numLanes="1" shape="308.30134272866417,-140.175187014509 306.70327958103735,-262.6822058008984" />
<edge from="667357325" to="8666700466" id="667357325to8666700466" numLanes="1" shape="308.30134272866417,-140.175187014509 258.9345160421799,-137.4935956792906" />
<edge from="667357325" to="245674992" id="667357325to245674992" numLanes="1" shape="308.30134272866417,-140.175187014509 307.1125116245821,-56.332607864867896 296.67068289691815,55.51149950642139 294.1465392478858,97.98175758775324 292.8317116458202,120.0866933488287 275.74204909364926,167.77971669938415 257.0733814277337,185.44136448251083 237.78015986963874,203.67517684400082 129.18008628638927,245.41872536065057 39.53415289049735,282.8176409089938 -33.92507937701885,312.38369503011927 -205.04029776301468,382.6459461869672 -205.04029776301468,382.6459461869672" />
<edge from="667357325" to="667357383" id="667357325to667357383" numLanes="1" shape="308.30134272866417,-140.175187014509 403.80944950832054,-140.6830616747029 417.83675480267266,-140.76172618055716 489.7465555195813,-140.71098676603287 584.1769372568815,-141.57046600384638 690.8734497494879,-140.16176627436653 690.8734497494879,-140.16176627436653" />
<edge from="667357383" to="668685380" id="667357383to668685380" numLanes="1" shape="690.8734497494879,-140.16176627436653 689.0389429165516,-89.18530674604699" />
<edge from="667357383" to="5879215623" id="667357383to5879215623" numLanes="1" shape="690.8734497494879,-140.16176627436653 695.8705133459298,-245.48538483446464" />
<edge from="667357383" to="667357325" id="667357383to667357325" numLanes="1" shape="690.8734497494879,-140.16176627436653 584.1769372568815,-141.57046600384638 489.7465555195813,-140.71098676603287 417.83675480267266,-140.76172618055716 403.80944950832054,-140.6830616747029 308.30134272866417,-140.175187014509 308.30134272866417,-140.175187014509" />
<edge from="667357392" to="668685380" id="667357392to668685380" numLanes="1" shape="674.0887343956274,130.3013503025286 689.0389429165516,-89.18530674604699" />
<edge from="667357392" to="667357409" id="667357392to667357409" numLanes="1" shape="674.0887343956274,130.3013503025286 666.0279517915915,129.4451398360543 611.8286673500552,127.466625217814 591.1931123555987,126.69382542464882 585.5763816243852,130.46996252192184 582.4293161843088,243.47800241736695 582.833750262449,254.4568925849162 587.4211986587616,260.56949450820684 619.0896614796366,265.24113838374615 630.6343215435627,272.33380302228034 631.2020536069176,286.4220579122193 631.5413446117309,329.03524076612666 631.9574428775231,394.8771659922786 631.9574428775231,394.8771659922786" />
<edge from="667357392" to="667357401" id="667357392to667357401" numLanes="1" shape="674.0887343956274,130.3013503025286 689.76111472107,131.41015563113615 735.8494101937977,135.38990181451663 735.8494101937977,135.38990181451663" />
<edge from="667357401" to="667357415" id="667357401to667357415" numLanes="1" shape="735.8494101937977,135.38990181451663 732.1239015235915,169.84689578972757 721.3463483664673,270.4782951516099 714.3867353523965,393.0095149022527 714.3867353523965,393.0095149022527" />
<edge from="667357401" to="668685380" id="667357401to668685380" numLanes="1" shape="735.8494101937977,135.38990181451663 753.2343092269148,5.438006186392158 753.7791309955646,-86.70086138183251 689.0389429165516,-89.18530674604699 689.0389429165516,-89.18530674604699" />
<edge from="667357401" to="667357392" id="667357401to667357392" numLanes="1" shape="735.8494101937977,135.38990181451663 689.76111472107,131.41015563113615 674.0887343956274,130.3013503025286 674.0887343956274,130.3013503025286" />
<edge from="667357409" to="667357415" id="667357409to667357415" numLanes="1" shape="631.9574428775231,394.8771659922786 714.3867353523965,393.0095149022527" />
<edge from="667357409" to="5366445083" id="667357409to5366445083" numLanes="1" shape="631.9574428775231,394.8771659922786 577.8286151436041,396.0978897726163 519.6282894871547,397.41159448213875 484.0473591244663,398.2122121970169 462.71150431694696,398.6991079025902 321.8818518630578,401.8846098873764 317.93675778474426,401.9870399478823 316.2328522519092,402.06273087346926 191.55191226047464,404.8461959012784 191.55191226047464,404.8461959012784" />
<edge from="667357409" to="667357392" id="667357409to667357392" numLanes="1" shape="631.9574428775231,394.8771659922786 631.5413446117309,329.03524076612666 631.2020536069176,286.4220579122193 630.6343215435627,272.33380302228034 619.0896614796366,265.24113838374615 587.4211986587616,260.56949450820684 582.833750262449,254.4568925849162 582.4293161843088,243.47800241736695 585.5763816243852,130.46996252192184 591.1931123555987,126.69382542464882 611.8286673500552,127.466625217814 666.0279517915915,129.4451398360543 674.0887343956274,130.3013503025286 674.0887343956274,130.3013503025286" />
<edge from="667357409" to="667357416" id="667357409to667357416" numLanes="1" shape="631.9574428775231,394.8771659922786 610.869324138388,416.15469363704324 604.3339988426305,424.0828165677376 597.380733908969,433.1452961228788 595.5552020577597,445.0919044339098 596.3090595499962,465.96525853779167 634.769030597352,464.8094457197003 675.6816105002072,445.1559290131554 701.8881865317817,424.21611882466823 701.8881865317817,424.21611882466823" />
<edge from="667357415" to="667357409" id="667357415to667357409" numLanes="1" shape="714.3867353523965,393.0095149022527 631.9574428775231,394.8771659922786" />
<edge from="667357415" to="667357416" id="667357415to667357416" numLanes="1" shape="714.3867353523965,393.0095149022527 701.8881865317817,424.21611882466823" />
<edge from="667357415" to="667357401" id="667357415to667357401" numLanes="1" shape="714.3867353523965,393.0095149022527 721.3463483664673,270.4782951516099 732.1239015235915,169.84689578972757 735.8494101937977,135.38990181451663 735.8494101937977,135.38990181451663" />
<edge from="667357416" to="667357415" id="667357416to667357415" numLanes="1" shape="701.8881865317817,424.21611882466823 714.3867353523965,393.0095149022527" />
<edge from="667357416" to="667357409" id="667357416to667357409" numLanes="1" shape="701.8881865317817,424.21611882466823 675.6816105002072,445.1559290131554 634.769030597352,464.8094457197003 596.3090595499962,465.96525853779167 595.5552020577597,445.0919044339098 597.380733908969,433.1452961228788 604.3339988426305,424.0828165677376 610.869324138388,416.15469363704324 631.9574428775231,394.8771659922786 631.9574428775231,394.8771659922786" />
<edge from="667357416" to="9169143586" id="667357416to9169143586" numLanes="1" shape="701.8881865317817,424.21611882466823 701.8520742557012,483.0325108068064 707.4552732601878,526.7234333190136 707.6624240295496,544.1155219101347 681.697892846365,686.9472507867031 681.697892846365,686.9472507867031" />
<edge from="668660548" to="667357310" id="668660548to667357310" numLanes="1" shape="350.0415422707447,-636.8225987264886 304.9867213308462,-519.5501341777854 297.4226647641626,-503.4383078175597 297.4226647641626,-503.4383078175597" />
<edge from="668660552" to="668660560" id="668660552to668660560" numLanes="1" shape="409.7025021253503,-609.465584397316 495.2567564739147,-519.0391887072474 665.2996123584453,-328.4845303702168 665.2996123584453,-328.4845303702168" />
<edge from="668660552" to="5879215650" id="668660552to5879215650" numLanes="1" shape="409.7025021253503,-609.465584397316 389.75311036611674,-557.0219280044548 380.202016197436,-531.9068291010335 380.202016197436,-531.9068291010335" />
<edge from="668660560" to="668660552" id="668660560to668660552" numLanes="1" shape="665.2996123584453,-328.4845303702168 495.2567564739147,-519.0391887072474 409.7025021253503,-609.465584397316 409.7025021253503,-609.465584397316" />
<edge from="668685380" to="667357392" id="668685380to667357392" numLanes="1" shape="689.0389429165516,-89.18530674604699 674.0887343956274,130.3013503025286" />
<edge from="668685380" to="667357383" id="668685380to667357383" numLanes="1" shape="689.0389429165516,-89.18530674604699 690.8734497494879,-140.16176627436653" />
<edge from="668685380" to="667357401" id="668685380to667357401" numLanes="1" shape="689.0389429165516,-89.18530674604699 753.7791309955646,-86.70086138183251 753.2343092269148,5.438006186392158 735.8494101937977,135.38990181451663 735.8494101937977,135.38990181451663" />
<edge from="668699249" to="667357317" id="668699249to667357317" numLanes="1" shape="306.70327958103735,-262.6822058008984 229.5990876641008,-259.6697115623392" />
<edge from="668699249" to="667357325" id="668699249to667357325" numLanes="1" shape="306.70327958103735,-262.6822058008984 308.30134272866417,-140.175187014509" />
<edge from="668699249" to="667357311" id="668699249to667357311" numLanes="1" shape="306.70327958103735,-262.6822058008984 306.4658106242423,-280.826873104088 305.8483120765886,-328.1868059276603 322.61968957755016,-393.8019703840837 363.73880734754493,-485.42836157185957 363.73880734754493,-485.42836157185957" />
<edge from="2081722939" to="4348259319" id="2081722939to4348259319" numLanes="1" shape="-697.8098271097406,536.9045148920268 -658.8540531806648,527.0592900426127" />
<edge from="4348259319" to="2081722939" id="4348259319to2081722939" numLanes="1" shape="-658.8540531806648,527.0592900426127 -697.8098271097406,536.9045148920268" />
<edge from="4348259319" to="245674992" id="4348259319to245674992" numLanes="1" shape="-658.8540531806648,527.0592900426127 -610.581591342343,516.6153313168325 -578.1386898974306,508.6199056576006 -558.1721695492743,502.75594749255106 -523.1241875368287,492.6035235179588 -450.005128033401,472.52842926001176 -421.7109934835462,462.55672886641696 -359.0699295126833,440.11618253728375 -237.29759197845124,396.5067929509096 -205.04029776301468,382.6459461869672 -205.04029776301468,382.6459461869672" />
<edge from="4348259319" to="8699875156" id="4348259319to8699875156" numLanes="1" shape="-658.8540531806648,527.0592900426127 -671.8667836153763,505.51339572062716 -702.9425404685899,490.6059990855865 -713.8767050570459,464.25194415124133 -724.6503157329862,473.238998235669 -728.3518398529268,486.63666125852615 -728.3518398529268,486.63666125852615" />
<edge from="5366445083" to="667357409" id="5366445083to667357409" numLanes="1" shape="191.55191226047464,404.8461959012784 316.2328522519092,402.06273087346926 317.93675778474426,401.9870399478823 321.8818518630578,401.8846098873764 462.71150431694696,398.6991079025902 484.0473591244663,398.2122121970169 519.6282894871547,397.41159448213875 577.8286151436041,396.0978897726163 631.9574428775231,394.8771659922786 631.9574428775231,394.8771659922786" />
<edge from="5879215623" to="667357383" id="5879215623to667357383" numLanes="1" shape="695.8705133459298,-245.48538483446464 690.8734497494879,-140.16176627436653" />
<edge from="5879215650" to="667357311" id="5879215650to667357311" numLanes="1" shape="380.202016197436,-531.9068291010335 374.467191362055,-516.8355015143752 363.73880734754493,-485.42836157185957 363.73880734754493,-485.42836157185957" />
<edge from="5879215650" to="668660552" id="5879215650to668660552" numLanes="1" shape="380.202016197436,-531.9068291010335 389.75311036611674,-557.0219280044548 409.7025021253503,-609.465584397316 409.7025021253503,-609.465584397316" />
<edge from="6435688923" to="6435688924" id="6435688923to6435688924" numLanes="1" shape="73.00380036205752,-695.9763080636039 68.87255197111517,-609.1865016734228" />
<edge from="6435688924" to="6435688923" id="6435688924to6435688923" numLanes="1" shape="68.87255197111517,-609.1865016734228 73.00380036205752,-695.9763080636039" />
<edge from="6435688924" to="6495983060" id="6435688924to6495983060" numLanes="1" shape="68.87255197111517,-609.1865016734228 89.91401306609623,-603.5804387922399 119.93448802200146,-572.2387573365122 129.1051704112324,-560.4233387433924 134.7793219659361,-546.1745667178184 160.87789694446838,-381.36471757804975 160.87789694446838,-381.36471757804975" />
<edge from="6495983054" to="667357310" id="6495983054to667357310" numLanes="1" shape="252.82963583193487,-372.22003244934604 297.4226647641626,-503.4383078175597" />
<edge from="6495983054" to="667357317" id="6495983054to667357317" numLanes="1" shape="252.82963583193487,-372.22003244934604 237.34533859213116,-326.6499275295064 229.5990876641008,-259.6697115623392 229.5990876641008,-259.6697115623392" />
<edge from="6495983054" to="6495983060" id="6495983054to6495983060" numLanes="1" shape="252.82963583193487,-372.22003244934604 241.4092017294024,-375.02901751408353 232.05618547362974,-377.4419146957807 213.1405811192817,-377.7809114847332 186.67368911363883,-372.41611831169575 169.15818489954108,-373.6022005258128 160.87789694446838,-381.36471757804975 160.87789694446838,-381.36471757804975" />
<edge from="6495983060" to="6495983054" id="6495983060to6495983054" numLanes="1" shape="160.87789694446838,-381.36471757804975 169.15818489954108,-373.6022005258128 186.67368911363883,-372.41611831169575 213.1405811192817,-377.7809114847332 232.05618547362974,-377.4419146957807 241.4092017294024,-375.02901751408353 252.82963583193487,-372.22003244934604 252.82963583193487,-372.22003244934604" />
<edge from="6495983060" to="6435688924" id="6495983060to6435688924" numLanes="1" shape="160.87789694446838,-381.36471757804975 134.7793219659361,-546.1745667178184 129.1051704112324,-560.4233387433924 119.93448802200146,-572.2387573365122 89.91401306609623,-603.5804387922399 68.87255197111517,-609.1865016734228 68.87255197111517,-609.1865016734228" />
<edge from="6495983060" to="667357318" id="6495983060to667357318" numLanes="1" shape="160.87789694446838,-381.36471757804975 153.6781276767142,-311.8221915611066 131.1773091398063,-228.12374748429283 131.1773091398063,-228.12374748429283" />
<edge from="8666700466" to="667357325" id="8666700466to667357325" numLanes="1" shape="258.9345160421799,-137.4935956792906 308.30134272866417,-140.175187014509" />
<edge from="8699875156" to="4348259319" id="8699875156to4348259319" numLanes="1" shape="-728.3518398529268,486.63666125852615 -724.6503157329862,473.238998235669 -713.8767050570459,464.25194415124133 -702.9425404685899,490.6059990855865 -671.8667836153763,505.51339572062716 -658.8540531806648,527.0592900426127 -658.8540531806648,527.0592900426127" />
<edge from="9169143586" to="667357416" id="9169143586to667357416" numLanes="1" shape="681.697892846365,686.9472507867031 707.6624240295496,544.1155219101347 707.4552732601878,526.7234333190136 701.8520742557012,483.0325108068064 701.8881865317817,424.21611882466823 701.8881865317817,424.21611882466823" />
</edges>