<edges>
<edge from="268789836" to="268789959" id="268789836to268789959" numLanes="1" shape="1046.726836632064,1187.1174179012887 1035.309052066994,1176.799609317677 980.2753920216928,1127.1288809566759 980.2753920216928,1127.1288809566759" />
<edge from="268789875" to="268789954" id="268789875to268789954" numLanes="1" shape="307.5058492659009,-230.8157774375286 317.33711180638056,-214.5765812129248 358.33599076553946,-137.5145145659335 391.4227378588985,-109.38956550555304 434.4613500101259,-82.6326014038641 442.32313918782165,-68.51091193337925 448.81772481591906,-54.61737800389528 469.7941607091343,-10.62978018517606 493.41593575669685,33.07342256116681 526.8607075492619,79.478971415665 575.5072430873988,113.93895741645247 587.4570385091356,124.25501374108717 674.2047185173724,195.67305084387772 775.5399476867169,249.31927206995897 787.7151357861585,255.25513408170082 787.7151357861585,255.25513408170082" />
<edge from="268789875" to="268789971" id="268789875to268789971" numLanes="1" shape="307.5058492659009,-230.8157774375286 291.2604717684444,-255.77281947806478 221.5905055712792,-313.2285286101978 181.3072045921581,-346.82830570614897 156.3517248966382,-364.90215561841615 136.12597238394665,-375.3811872645747 116.23388403089484,-386.70173836289905 116.23388403089484,-386.70173836289905" />
<edge from="268789875" to="3371735080" id="268789875to3371735080" numLanes="1" shape="307.5058492659009,-230.8157774375286 227.16667347284965,-204.31917908997275 136.1074427473941,-183.07661277614534 132.54163340613013,-182.30278157559223 132.54163340613013,-182.30278157559223" />
<edge from="268789877" to="268789942" id="268789877to268789942" numLanes="1" shape="835.7383399755927,935.542828677455 880.8507554195821,952.8824775919784" />
<edge from="268789877" to="268789882" id="268789877to268789882" numLanes="1" shape="835.7383399755927,935.542828677455 739.8888919053716,916.7621322029736 719.903749482357,902.942013224354 704.8814280172228,862.32071408513 685.5265464486438,812.643489523558 590.3178247676697,580.4219966358505 553.8867594712647,485.3741197139025 554.6083958619856,476.45791727583855 573.2357434082078,445.9219155679457 606.9676081408979,392.6796325640753 606.9676081408979,392.6796325640753" />
<edge from="268789877" to="268789961" id="268789877to268789961" numLanes="1" shape="835.7383399755927,935.542828677455 821.7822630047449,917.8227358420845 803.997156347672,874.4115538464393 795.1112590839621,829.5028970323037 790.7570404919097,816.7973457514308 777.9898486974998,779.5756413850468 771.0086407017661,758.7712433200795 766.8942773361341,746.4963037720881 754.1920125985635,705.6136856642552 742.083772018028,656.6557878940366 735.0603383875568,614.4622493903153 732.6576313595288,601.573925293982 728.7888296287856,580.749183498323 724.123742057127,532.9635064669419 712.3038630996016,468.023632282624 700.2257691402338,425.5797666700091 696.7409516416374,409.87447847868316 696.7409516416374,409.87447847868316" />
<edge from="268789882" to="268789961" id="268789882to268789961" numLanes="1" shape="606.9676081408979,392.6796325640753 641.9457307152334,437.05680287233554 696.7409516416374,409.87447847868316 696.7409516416374,409.87447847868316" />
<edge from="268789882" to="268789999" id="268789882to268789999" numLanes="1" shape="606.9676081408979,392.6796325640753 576.1970812308718,359.10621059616096 530.5411741868011,305.5041745011695 512.9020055363071,282.1327181519009 484.84141350962454,251.80280015943572 392.23635931295576,183.8092506902758 357.18458239739994,158.51040813419968 326.4893469394301,132.14787597744726 311.6585450228886,119.52911121933721 288.515070207126,101.57138613052666 264.5349813126377,79.50201479624957 230.77329816581914,54.12203001463786 191.83014048961923,18.792938041500747 112.95362978277262,-9.570156631525606 88.85377021227032,-31.71644511190243 82.05543614458293,-45.57581265596673 70.16874210472452,-63.666763635585085 65.64868853846565,-91.68928791815415 66.07234623719705,-109.48548174160533 65.50309296144405,-140.08572125877254 65.50309296144405,-140.08572125877254" />
<edge from="268789882" to="268789877" id="268789882to268789877" numLanes="1" shape="606.9676081408979,392.6796325640753 573.2357434082078,445.9219155679457 554.6083958619856,476.45791727583855 553.8867594712647,485.3741197139025 590.3178247676697,580.4219966358505 685.5265464486438,812.643489523558 704.8814280172228,862.32071408513 719.903749482357,902.942013224354 739.8888919053716,916.7621322029736 835.7383399755927,935.542828677455 835.7383399755927,935.542828677455" />
<edge from="268789942" to="268789877" id="268789942to268789877" numLanes="1" shape="880.8507554195821,952.8824775919784 835.7383399755927,935.542828677455" />
<edge from="268789942" to="268789950" id="268789942to268789950" numLanes="1" shape="880.8507554195821,952.8824775919784 869.4950096580433,905.2273251039442 860.0124247837812,856.5712269754149 852.2569350699778,819.7548160511069 846.3462380691781,797.8744286957663 833.198973573395,738.6452275698539 822.0103227161453,685.2496597396675 814.430081580067,649.0410134235863 810.051543398411,631.8232144005597 804.4247152011958,592.4235780814197 795.2714260229259,548.787576632807 781.474382225133,468.1268274260219 735.7864034432569,345.4573637624271 735.7864034432569,345.4573637624271" />
<edge from="268789942" to="3248845375" id="268789942to3248845375" numLanes="1" shape="880.8507554195821,952.8824775919784 946.4292318715598,978.0909585056361 965.5995287157712,987.8326660899911 965.5995287157712,987.8326660899911" />
<edge from="268789950" to="268789961" id="268789950to268789961" numLanes="1" shape="735.7864034432569,345.4573637624271 696.7409516416374,409.87447847868316" />
<edge from="268789950" to="268789942" id="268789950to268789942" numLanes="1" shape="735.7864034432569,345.4573637624271 781.474382225133,468.1268274260219 795.2714260229259,548.787576632807 804.4247152011958,592.4235780814197 810.051543398411,631.8232144005597 814.430081580067,649.0410134235863 822.0103227161453,685.2496597396675 833.198973573395,738.6452275698539 846.3462380691781,797.8744286957663 852.2569350699778,819.7548160511069 860.0124247837812,856.5712269754149 869.4950096580433,905.2273251039442 880.8507554195821,952.8824775919784 880.8507554195821,952.8824775919784" />
<edge from="268789950" to="268789954" id="268789950to268789954" numLanes="1" shape="735.7864034432569,345.4573637624271 750.9888416607864,315.55106329149567 774.2199221933843,275.799893157091 787.7151357861585,255.25513408170082 787.7151357861585,255.25513408170082" />
<edge from="268789954" to="3248845375" id="268789954to3248845375" numLanes="1" shape="787.7151357861585,255.25513408170082 798.1813181055477,266.3498719751369 806.2394505153643,277.30802038218826 822.141033670574,321.7976058803033 828.4048927781987,334.785016897833 835.7022372712381,359.75795348058455 851.8864243225544,393.5741970303934 860.4061263964395,417.5038927246351 887.1728963156347,567.0383786624297 893.0900867566234,598.3747107891832 894.5022008068045,610.0494403003249 902.4655716875568,651.1231844325084 904.9438796972972,663.933876327239 920.7847021931666,728.1871947098989 940.9277671375312,802.3039285426494 945.4561600321322,815.252291833749 954.3437235433958,860.8024342334829 953.9806009493186,891.8146359701641 951.0553118679672,914.6171863502823 956.923780020501,951.483476795489 965.5995287157712,987.8326660899911 965.5995287157712,987.8326660899911" />
<edge from="268789954" to="268789875" id="268789954to268789875" numLanes="1" shape="787.7151357861585,255.25513408170082 775.5399476867169,249.31927206995897 674.2047185173724,195.67305084387772 587.4570385091356,124.25501374108717 575.5072430873988,113.93895741645247 526.8607075492619,79.478971415665 493.41593575669685,33.07342256116681 469.7941607091343,-10.62978018517606 448.81772481591906,-54.61737800389528 442.32313918782165,-68.51091193337925 434.4613500101259,-82.6326014038641 391.4227378588985,-109.38956550555304 358.33599076553946,-137.5145145659335 317.33711180638056,-214.5765812129248 307.5058492659009,-230.8157774375286 307.5058492659009,-230.8157774375286" />
<edge from="268789954" to="268789950" id="268789954to268789950" numLanes="1" shape="787.7151357861585,255.25513408170082 774.2199221933843,275.799893157091 750.9888416607864,315.55106329149567 735.7864034432569,345.4573637624271 735.7864034432569,345.4573637624271" />
<edge from="268789959" to="3248845375" id="268789959to3248845375" numLanes="1" shape="980.2753920216928,1127.1288809566759 981.3843124045525,1022.43539042864 974.7976102076354,1002.9348082507495 965.5995287157712,987.8326660899911 965.5995287157712,987.8326660899911" />
<edge from="268789959" to="268789836" id="268789959to268789836" numLanes="1" shape="980.2753920216928,1127.1288809566759 980.879982513492,1199.0476739008445 1004.6173773703631,1194.7522240292747 1037.50286693807,1188.7927475979086 1046.726836632064,1187.1174179012887 1046.726836632064,1187.1174179012887" />
<edge from="268789961" to="268789950" id="268789961to268789950" numLanes="1" shape="696.7409516416374,409.87447847868316 735.7864034432569,345.4573637624271" />
<edge from="268789961" to="268789882" id="268789961to268789882" numLanes="1" shape="696.7409516416374,409.87447847868316 641.9457307152334,437.05680287233554 606.9676081408979,392.6796325640753 606.9676081408979,392.6796325640753" />
<edge from="268789961" to="3371735080" id="268789961to3371735080" numLanes="1" shape="696.7409516416374,409.87447847868316 681.8123532920727,364.4088019039482 672.2950378470705,336.9541188906878 663.7178288684809,322.8787496886216 648.9249625020311,301.0912928765174 625.5922150841216,277.73678420414217 596.9099752888433,253.45822118665092 572.2530623985222,244.28612580290064 528.578291069367,214.93187550920993 465.90850508370204,176.69840214541182 429.30806644278346,159.35596701479517 369.5593685992644,126.0686519802548 328.1038640746847,95.51360624143854 303.36055422452046,68.46966758184135 273.3738242430845,28.888827128335834 237.83345906587783,-29.001086191274226 221.4458296042285,-65.22740374971181 205.72664586018072,-95.53882899554446 188.84504639328225,-115.6608530995436 158.09451543050818,-149.44405424804427 132.54163340613013,-182.30278157559223 132.54163340613013,-182.30278157559223" />
<edge from="268789961" to="268789877" id="268789961to268789877" numLanes="1" shape="696.7409516416374,409.87447847868316 700.2257691402338,425.5797666700091 712.3038630996016,468.023632282624 724.123742057127,532.9635064669419 728.7888296287856,580.749183498323 732.6576313595288,601.573925293982 735.0603383875568,614.4622493903153 742.083772018028,656.6557878940366 754.1920125985635,705.6136856642552 766.8942773361341,746.4963037720881 771.0086407017661,758.7712433200795 777.9898486974998,779.5756413850468 790.7570404919097,816.7973457514308 795.1112590839621,829.5028970323037 803.997156347672,874.4115538464393 821.7822630047449,917.8227358420845 835.7383399755927,935.542828677455 835.7383399755927,935.542828677455" />
<edge from="268789969" to="268789971" id="268789969to268789971" numLanes="1" shape="93.62072795303538,-379.5998416899238 109.36228927015327,-378.01034664176404 116.23388403089484,-386.70173836289905 116.23388403089484,-386.70173836289905" />
<edge from="268789969" to="3371735080" id="268789969to3371735080" numLanes="1" shape="93.62072795303538,-379.5998416899238 91.74093555356376,-366.34477488254197 94.34535162959946,-336.9893372093793 102.70161002950044,-273.9193771202117 111.34379649732728,-223.95591414161026 132.54163340613013,-182.30278157559223 132.54163340613013,-182.30278157559223" />
<edge from="268789971" to="268789875" id="268789971to268789875" numLanes="1" shape="116.23388403089484,-386.70173836289905 136.12597238394665,-375.3811872645747 156.3517248966382,-364.90215561841615 181.3072045921581,-346.82830570614897 221.5905055712792,-313.2285286101978 291.2604717684444,-255.77281947806478 307.5058492659009,-230.8157774375286 307.5058492659009,-230.8157774375286" />
<edge from="268789971" to="268789973" id="268789971to268789973" numLanes="1" shape="116.23388403089484,-386.70173836289905 106.83481690572808,-396.2068680708762 90.99225811287761,-409.74043877539225 90.99225811287761,-409.74043877539225" />
<edge from="268789973" to="268789976" id="268789973to268789976" numLanes="1" shape="90.99225811287761,-409.74043877539225 79.60892409208464,-408.26845908607356 72.49308154830942,-401.4564574388787 72.49308154830942,-401.4564574388787" />
<edge from="268789973" to="330653353" id="268789973to330653353" numLanes="1" shape="90.99225811287761,-409.74043877539225 76.98547525377944,-454.76623548497446 60.23825528752059,-509.4388245746959 46.720424401399214,-546.9234245775733 46.720424401399214,-546.9234245775733" />
<edge from="268789976" to="268789969" id="268789976to268789969" numLanes="1" shape="72.49308154830942,-401.4564574388787 76.890280115942,-392.6551712846849 93.62072795303538,-379.5998416899238 93.62072795303538,-379.5998416899238" />
<edge from="268789976" to="268790010" id="268789976to268790010" numLanes="1" shape="72.49308154830942,-401.4564574388787 54.96939991886029,-411.40163830667734 39.76994904602179,-416.64240681170486 -5.347880714805797,-431.24908970389515 -40.58974871202372,-443.66246266523376 -59.29250448627863,-448.9589859494008 -85.43916639621602,-451.9437282457948 -101.69258812232874,-454.2172690499574 -101.69258812232874,-454.2172690499574" />
<edge from="268789999" to="268790000" id="268789999to268790000" numLanes="1" shape="65.50309296144405,-140.08572125877254 65.48485534766223,-167.77893939451315" />
<edge from="268789999" to="268789882" id="268789999to268789882" numLanes="1" shape="65.50309296144405,-140.08572125877254 66.07234623719705,-109.48548174160533 65.64868853846565,-91.68928791815415 70.16874210472452,-63.666763635585085 82.05543614458293,-45.57581265596673 88.85377021227032,-31.71644511190243 112.95362978277262,-9.570156631525606 191.83014048961923,18.792938041500747 230.77329816581914,54.12203001463786 264.5349813126377,79.50201479624957 288.515070207126,101.57138613052666 311.6585450228886,119.52911121933721 326.4893469394301,132.14787597744726 357.18458239739994,158.51040813419968 392.23635931295576,183.8092506902758 484.84141350962454,251.80280015943572 512.9020055363071,282.1327181519009 530.5411741868011,305.5041745011695 576.1970812308718,359.10621059616096 606.9676081408979,392.6796325640753 606.9676081408979,392.6796325640753" />
<edge from="268790000" to="330612289" id="268790000to330612289" numLanes="1" shape="65.48485534766223,-167.77893939451315 48.54331129259663,-164.5206810995005" />
<edge from="268790000" to="3371735080" id="268790000to3371735080" numLanes="1" shape="65.48485534766223,-167.77893939451315 132.54163340613013,-182.30278157559223" />
<edge from="268790010" to="330612289" id="268790010to330612289" numLanes="1" shape="-101.69258812232874,-454.2172690499574 -110.57314005552325,-424.79404533165507 -134.72348995611537,-344.80445206793956 -140.30732245440595,-326.2959352405742 -61.242514668847434,-153.03097443049774 -44.213479013647884,-145.24100793199614 48.54331129259663,-164.5206810995005 48.54331129259663,-164.5206810995005" />
<edge from="268790010" to="330648048" id="268790010to330648048" numLanes="1" shape="-101.69258812232874,-454.2172690499574 -176.6379720089608,-462.37449343991466 -286.6918405534816,-471.0227184223477 -289.34886839741375,-470.9815142301377 -295.07505009288434,-470.89786018431187 -313.29468899639323,-470.62162620574236 -349.13451783527853,-479.8586989135947 -380.3890743876109,-486.28938790620305 -416.0309837319073,-498.20340351271443 -450.81643933820305,-506.63618536060676 -516.1825436238432,-528.1372794737108 -569.0279983303626,-537.2562103583477 -569.0279983303626,-537.2562103583477" />
<edge from="268790010" to="268789976" id="268790010to268789976" numLanes="1" shape="-101.69258812232874,-454.2172690499574 -85.43916639621602,-451.9437282457948 -59.29250448627863,-448.9589859494008 -40.58974871202372,-443.66246266523376 -5.347880714805797,-431.24908970389515 39.76994904602179,-416.64240681170486 54.96939991886029,-411.40163830667734 72.49308154830942,-401.4564574388787 72.49308154830942,-401.4564574388787" />
<edge from="275675441" to="330653353" id="275675441to330653353" numLanes="1" shape="44.81522167130606,-841.3908725851215 14.51068284350913,-762.6769452341832 8.479417868133169,-748.624151712982 7.254413525690325,-741.2326456361916 6.3817404610454105,-717.6730486743618 7.631314345460851,-677.2539307358675 13.760984113963787,-640.5765861470718 19.62940210098168,-622.235289754346 25.34634495776845,-600.1664475800935 41.82919469935587,-554.0974579770118 46.720424401399214,-546.9234245775733 46.720424401399214,-546.9234245775733" />
<edge from="275675441" to="2167078771" id="275675441to2167078771" numLanes="1" shape="44.81522167130606,-841.3908725851215 46.8622170027229,-860.364258197369 47.49200201698113,-874.5445706194732 47.33617662452161,-922.7529353536665 47.33617662452161,-922.7529353536665" />
<edge from="275675441" to="330648048" id="275675441to330648048" numLanes="1" shape="44.81522167130606,-841.3908725851215 18.303152666368987,-843.1470180584583 -7.1920964131713845,-842.1855342870113 -59.81493279268034,-834.8826092013624 -77.32058297091862,-831.5341232623905 -94.17336379160406,-827.4797776460182 -118.84356631396804,-819.0664961866569 -163.39464064937783,-800.1308596038725 -219.22301807068288,-776.9031710652635 -300.29996156471316,-750.0932195528876 -385.49399305315455,-707.5769719160162 -481.8585095569142,-675.7323489293922 -500.4637311625411,-666.6403126602527 -518.5034560646745,-649.8856561935972 -531.08323165396,-620.871341212187 -542.218300859502,-583.964822597336 -556.5139243008452,-559.2917261782568 -569.0279983303626,-537.2562103583477 -569.0279983303626,-537.2562103583477" />
<edge from="275676975" to="2164168455" id="275676975to2164168455" numLanes="1" shape="54.55379179120064,-985.9360605706461 40.188880975707434,-994.8732645118143" />
<edge from="275676975" to="2167078770" id="275676975to2167078770" numLanes="1" shape="54.55379179120064,-985.9360605706461 65.10308966954472,-990.73447010573 73.080210377404,-992.5058702304959 98.68900523887714,-991.8197313065175 129.11996211635415,-988.9140155359637 165.76684148662025,-985.5624296606984 206.51462900754996,-974.5698586029466 236.3546635946841,-958.943709035404 271.70684425818035,-946.0768428905867 271.70684425818035,-946.0768428905867" />
<edge from="275676975" to="2167078771" id="275676975to2167078771" numLanes="1" shape="54.55379179120064,-985.9360605706461 49.0994338793098,-974.7715746094473 46.46557018492604,-963.4054367432836 45.945969387481455,-952.2557892496698 47.004003059875686,-939.4408852327615 47.33617662452161,-922.7529353536665 47.33617662452161,-922.7529353536665" />
<edge from="275676979" to="330654123" id="275676979to330654123" numLanes="1" shape="474.5163409175002,-933.2137631895021 493.5395296961651,-933.2596112969331 553.3964066445478,-933.405408452265 553.3964066445478,-933.405408452265" />
<edge from="275676979" to="330654139" id="275676979to330654139" numLanes="1" shape="474.5163409175002,-933.2137631895021 461.37995461694663,-933.9707492415328 427.9827538358513,-935.0873502325267 368.83533862553304,-937.0557908341289 355.0028056060546,-938.4852768699639 355.0028056060546,-938.4852768699639" />
<edge from="275676979" to="2166703022" id="275676979to2166703022" numLanes="1" shape="474.5163409175002,-933.2137631895021 474.9810143819195,-839.5292956675403 474.11074866639683,-800.5305460817181 474.8226178290788,-772.8504994336981 477.1659584103618,-671.1313140143175 477.1659584103618,-671.1313140143175" />
<edge from="275676982" to="330654123" id="275676982to330654123" numLanes="1" shape="632.3811706902925,-931.2193285520189 588.2139330096543,-932.4366747569293 553.3964066445478,-933.405408452265 553.3964066445478,-933.405408452265" />
<edge from="330612289" to="268790000" id="330612289to268790000" numLanes="1" shape="48.54331129259663,-164.5206810995005 65.48485534766223,-167.77893939451315" />
<edge from="330612289" to="268789999" id="330612289to268789999" numLanes="1" shape="48.54331129259663,-164.5206810995005 65.50309296144405,-140.08572125877254" />
<edge from="330612289" to="268790010" id="330612289to268790010" numLanes="1" shape="48.54331129259663,-164.5206810995005 -44.213479013647884,-145.24100793199614 -61.242514668847434,-153.03097443049774 -140.30732245440595,-326.2959352405742 -134.72348995611537,-344.80445206793956 -110.57314005552325,-424.79404533165507 -101.69258812232874,-454.2172690499574 -101.69258812232874,-454.2172690499574" />
<edge from="330648048" to="275675441" id="330648048to275675441" numLanes="1" shape="-569.0279983303626,-537.2562103583477 -556.5139243008452,-559.2917261782568 -542.218300859502,-583.964822597336 -531.08323165396,-620.871341212187 -518.5034560646745,-649.8856561935972 -500.4637311625411,-666.6403126602527 -481.8585095569142,-675.7323489293922 -385.49399305315455,-707.5769719160162 -300.29996156471316,-750.0932195528876 -219.22301807068288,-776.9031710652635 -163.39464064937783,-800.1308596038725 -118.84356631396804,-819.0664961866569 -94.17336379160406,-827.4797776460182 -77.32058297091862,-831.5341232623905 -59.81493279268034,-834.8826092013624 -7.1920964131713845,-842.1855342870113 18.303152666368987,-843.1470180584583 44.81522167130606,-841.3908725851215 44.81522167130606,-841.3908725851215" />
<edge from="330648048" to="2018053792" id="330648048to2018053792" numLanes="1" shape="-569.0279983303626,-537.2562103583477 -599.736958941503,-542.5491699483246 -610.1440549970139,-544.5968283687253 -677.749584829493,-553.4496076810174 -698.8344048646977,-553.7948274929076 -722.7399539184407,-547.2855569934472 -745.8631112722796,-543.8532183447387 -756.0229556444683,-543.048188713612 -769.6643995110062,-545.8711980895605 -791.8113273799536,-556.6755316278432 -814.7417468535132,-571.9013198774774 -832.3146467117476,-583.6153544343542 -850.9099803653662,-592.7272562994622 -878.6940234036301,-599.0905306846835 -898.9680577682448,-603.8508599146735 -928.5262423783424,-608.7156375283375 -984.9181397508946,-614.140138926683 -998.9023263272829,-619.0854449276812 -1013.3794874561136,-629.2051521020476 -1032.5213589065825,-653.920419132337 -1036.6639099161257,-700.0375397603493 -1037.2814418012858,-706.9368710785639 -1039.6726870592101,-733.5611884596292 -1041.245340997877,-744.2510644490831 -1043.4019483681186,-782.8536816507112 -1043.4019483681186,-782.8536816507112" />
<edge from="330648048" to="268790010" id="330648048to268790010" numLanes="1" shape="-569.0279983303626,-537.2562103583477 -516.1825436238432,-528.1372794737108 -450.81643933820305,-506.63618536060676 -416.0309837319073,-498.20340351271443 -380.3890743876109,-486.28938790620305 -349.13451783527853,-479.8586989135947 -313.29468899639323,-470.62162620574236 -295.07505009288434,-470.89786018431187 -289.34886839741375,-470.9815142301377 -286.6918405534816,-471.0227184223477 -176.6379720089608,-462.37449343991466 -101.69258812232874,-454.2172690499574 -101.69258812232874,-454.2172690499574" />
<edge from="330653353" to="275675441" id="330653353to275675441" numLanes="1" shape="46.720424401399214,-546.9234245775733 41.82919469935587,-554.0974579770118 25.34634495776845,-600.1664475800935 19.62940210098168,-622.235289754346 13.760984113963787,-640.5765861470718 7.631314345460851,-677.2539307358675 6.3817404610454105,-717.6730486743618 7.254413525690325,-741.2326456361916 8.479417868133169,-748.624151712982 14.51068284350913,-762.6769452341832 44.81522167130606,-841.3908725851215 44.81522167130606,-841.3908725851215" />
<edge from="330653353" to="268789973" id="330653353to268789973" numLanes="1" shape="46.720424401399214,-546.9234245775733 60.23825528752059,-509.4388245746959 76.98547525377944,-454.76623548497446 90.99225811287761,-409.74043877539225 90.99225811287761,-409.74043877539225" />
<edge from="330653353" to="2166694724" id="330653353to2166694724" numLanes="1" shape="46.720424401399214,-546.9234245775733 75.01177562045632,-562.9011747934856 82.44024745514616,-566.7501369807869 106.17673833237495,-579.0423664646223 124.84250625706045,-582.460589182796 132.3435066799284,-583.8324027576018 249.94141175050754,-594.8138116835617 255.22172246908303,-595.3052187985741 255.22172246908303,-595.3052187985741" />
<edge from="330653384" to="2166703022" id="330653384to2166703022" numLanes="1" shape="478.22536116762785,-625.1707858964801 477.1659584103618,-671.1313140143175" />
<edge from="330653384" to="2166694724" id="330653384to2166694724" numLanes="1" shape="478.22536116762785,-625.1707858964801 335.12538608175237,-604.6690271780826 301.36652139463695,-599.9338371006306 255.22172246908303,-595.3052187985741 255.22172246908303,-595.3052187985741" />
<edge from="330654038" to="2164168433" id="330654038to2164168433" numLanes="1" shape="-3.239363652304746,-1128.9067337452434 -3.527894484635908,-1109.4520151910838" />
<edge from="330654038" to="330654081" id="330654038to330654081" numLanes="1" shape="-3.239363652304746,-1128.9067337452434 147.5497908203397,-1128.7627815813757 173.2592054338893,-1127.1146829091012 208.60903870372567,-1100.6556251933798 245.0359845503117,-1098.353928447701 356.9093758277595,-1091.290425288491 356.9093758277595,-1091.290425288491" />
<edge from="330654038" to="3098974997" id="330654038to3098974997" numLanes="1" shape="-3.239363652304746,-1128.9067337452434 -18.370807434839662,-1129.436303431401 -38.47013667225838,-1130.1389255316462 -68.44123159931041,-1120.736506298883 -81.2828235423658,-1106.3977608662099 -87.0721641703276,-1102.0338985440321 -87.0721641703276,-1102.0338985440321" />
<edge from="330654081" to="330654083" id="330654081to330654083" numLanes="1" shape="356.9093758277595,-1091.290425288491 465.5278574768454,-1088.2203091883566" />
<edge from="330654081" to="330654139" id="330654081to330654139" numLanes="1" shape="356.9093758277595,-1091.290425288491 355.0028056060546,-938.4852768699639" />
<edge from="330654081" to="330654038" id="330654081to330654038" numLanes="1" shape="356.9093758277595,-1091.290425288491 245.0359845503117,-1098.353928447701 208.60903870372567,-1100.6556251933798 173.2592054338893,-1127.1146829091012 147.5497908203397,-1128.7627815813757 -3.239363652304746,-1128.9067337452434 -3.239363652304746,-1128.9067337452434" />
<edge from="330654083" to="330654081" id="330654083to330654081" numLanes="1" shape="465.5278574768454,-1088.2203091883566 356.9093758277595,-1091.290425288491" />
<edge from="330654123" to="275676982" id="330654123to275676982" numLanes="1" shape="553.3964066445478,-933.405408452265 588.2139330096543,-932.4366747569293 632.3811706902925,-931.2193285520189 632.3811706902925,-931.2193285520189" />
<edge from="330654123" to="275676979" id="330654123to275676979" numLanes="1" shape="553.3964066445478,-933.405408452265 493.5395296961651,-933.2596112969331 474.5163409175002,-933.2137631895021 474.5163409175002,-933.2137631895021" />
<edge from="330654123" to="1515242053" id="330654123to1515242053" numLanes="1" shape="553.3964066445478,-933.405408452265 552.6943943636143,-1015.8747162492946 564.6782255263533,-1030.6197928630281 592.6113578795339,-1032.4396094772965 595.6417178582051,-1107.211517983349 620.9178363682586,-1116.2563382738736 637.2917298093671,-1139.1211678821128 652.3380642717239,-1185.2624641973525 654.3453769859043,-1192.24705807399 654.3453769859043,-1192.24705807399" />
<edge from="330654139" to="330654081" id="330654139to330654081" numLanes="1" shape="355.0028056060546,-938.4852768699639 356.9093758277595,-1091.290425288491" />
<edge from="330654139" to="275676979" id="330654139to275676979" numLanes="1" shape="355.0028056060546,-938.4852768699639 368.83533862553304,-937.0557908341289 427.9827538358513,-935.0873502325267 461.37995461694663,-933.9707492415328 474.5163409175002,-933.2137631895021 474.5163409175002,-933.2137631895021" />
<edge from="330654139" to="2167078770" id="330654139to2167078770" numLanes="1" shape="355.0028056060546,-938.4852768699639 317.540612480836,-938.8817509636283 298.4555253437138,-941.3903645272367 271.70684425818035,-946.0768428905867 271.70684425818035,-946.0768428905867" />
<edge from="330780901" to="2018053792" id="330780901to2018053792" numLanes="1" shape="-1045.6218512292835,-824.4311470633838 -1044.9435233584954,-797.5804190100171 -1044.2359556392184,-789.6085777529515 -1044.3911578336847,-787.1528657276649 -1043.4019483681186,-782.8536816507112 -1043.4019483681186,-782.8536816507112" />
<edge from="1515242053" to="330654123" id="1515242053to330654123" numLanes="1" shape="654.3453769859043,-1192.24705807399 652.3380642717239,-1185.2624641973525 637.2917298093671,-1139.1211678821128 620.9178363682586,-1116.2563382738736 595.6417178582051,-1107.211517983349 592.6113578795339,-1032.4396094772965 564.6782255263533,-1030.6197928630281 552.6943943636143,-1015.8747162492946 553.3964066445478,-933.405408452265 553.3964066445478,-933.405408452265" />
<edge from="2018053792" to="330780901" id="2018053792to330780901" numLanes="1" shape="-1043.4019483681186,-782.8536816507112 -1044.3911578336847,-787.1528657276649 -1044.2359556392184,-789.6085777529515 -1044.9435233584954,-797.5804190100171 -1045.6218512292835,-824.4311470633838 -1045.6218512292835,-824.4311470633838" />