<nodes>
<node id="268789836" x="1046.726836632064" y="1187.1174179012887" />
<node id="268789875" x="307.5058492659009" y="-230.8157774375286" />
<node id="268789877" x="835.7383399755927" y="935.542828677455" />
<node id="268789882" x="606.9676081408979" y="392.6796325640753" />
<node id="268789942" x="880.8507554195821" y="952.8824775919784" />
<node id="268789950" x="735.7864034432569" y="345.4573637624271" />
<node id="268789954" x="787.7151357861585" y="255.25513408170082" />
<node id="268789959" x="980.2753920216928" y="1127.1288809566759" />
<node id="268789961" x="696.7409516416374" y="409.87447847868316" />
<node id="268789969" x="93.62072795303538" y="-379.5998416899238" />
<node id="268789971" x="116.23388403089484" y="-386.70173836289905" />
<node id="268789973" x="90.99225811287761" y="-409.74043877539225" />
<node id="268789976" x="72.49308154830942" y="-401.4564574388787" />
<node id="268789999" x="65.50309296144405" y="-140.08572125877254" />
<node id="268790000" x="65.48485534766223" y="-167.77893939451315" />
<node id="268790010" x="-101.69258812232874" y="-454.2172690499574" />
<node id="275675441" x="44.81522167130606" y="-841.3908725851215" />
<node id="275676975" x="54.55379179120064" y="-985.9360605706461" />
<node id="275676979" x="474.5163409175002" y="-933.2137631895021" />
<node id="275676982" x="632.3811706902925" y="-931.2193285520189" />
<node id="330612289" x="48.54331129259663" y="-164.5206810995005" />
<node id="330648048" x="-569.0279983303626" y="-537.2562103583477" />
<node id="330653353" x="46.720424401399214" y="-546.9234245775733" />
<node id="330653384" x="478.22536116762785" y="-625.1707858964801" />
<node id="330654038" x="-3.239363652304746" y="-1128.9067337452434" />
<node id="330654081" x="356.9093758277595" y="-1091.290425288491" />
<node id="330654083" x="465.5278574768454" y="-1088.2203091883566" />
<node id="330654123" x="553.3964066445478" y="-933.405408452265" />
<node id="330654139" x="355.0028056060546" y="-938.4852768699639" />
<node id="330780901" x="-1045.6218512292835" y="-824.4311470633838" />
<node id="1515242053" x="654.3453769859043" y="-1192.24705807399" />
<node id="2018053792" x="-1043.4019483681186" y="-782.8536816507112" />
<node id="2164168433" x="-3.527894484635908" y="-1109.4520151910838" />
<node id="2164168455" x="40.188880975707434" y="-994.8732645118143" />
<node id="2166694724" x="255.22172246908303" y="-595.3052187985741" />
<node id="2166694752" x="141.0537919018534" y="-511.20800424343906" />
<node id="2166703022" x="477.1659584103618" y="-671.1313140143175" />
<node id="2167078769" x="271.3870738533442" y="-1005.6871414645575" />
<node id="2167078770" x="271.70684425818035" y="-946.0768428905867" />
<node id="2167078771" x="47.33617662452161" y="-922.7529353536665" />
<node id="2167078772" x="101.0757982066134" y="-919.3975396086462" />
<node id="3098974997" x="-87.0721641703276" y="-1102.0338985440321" />
<node id="3248845375" x="965.5995287157712" y="987.8326660899911" />
<node id="3371735080" x="132.54163340613013" y="-182.30278157559223" />
</nodes>