<?xml version="1.0" encoding="UTF-8"?>

<!-- generated on 2022-06-16 16:54:46 by Eclipse SUMO netconvert Version 1.13.0
<configuration xmlns:xsi="http://www.w3.org/2001/XMLSchema-instance" xsi:noNamespaceSchemaLocation="http://sumo.dlr.de/xsd/netconvertConfiguration.xsd">

    <input>
        <node-files value="iit_delhi.nod.xml"/>
        <edge-files value="iit_delhi.edg.xml"/>
    </input>

    <output>
        <output-file value="iit_delhi.net.xml"/>
    </output>

    <report>
        <aggregate-warnings value="5"/>
    </report>

</configuration>
-->

<net version="1.9" junctionCornerDetail="5" limitTurnSpeed="5.50" xmlns:xsi="http://www.w3.org/2001/XMLSchema-instance" xsi:noNamespaceSchemaLocation="http://sumo.dlr.de/xsd/net_file.xsd">

    <location netOffset="962.14,546.37" convBoundary="0.00,0.00,1922.76,1099.06" origBoundary="-962.14,-546.37,960.62,552.69" projParameter="!"/>

    <edge id=":2102480543_0" function="internal">
        <lane id=":2102480543_0_0" index="0" speed="6.51" length="9.03" shape="1747.19,107.13 1745.93,105.01 1744.28,103.79 1742.26,103.49 1739.87,104.10"/>
    </edge>
    <edge id=":2102480543_1" function="internal">
        <lane id=":2102480543_1_0" index="0" speed="13.89" length="14.57" shape="1747.19,107.13 1741.79,93.60"/>
    </edge>
    <edge id=":2102480543_2" function="internal">
        <lane id=":2102480543_2_0" index="0" speed="8.06" length="14.31" shape="1747.19,107.13 1746.23,103.37 1746.71,100.18 1748.64,97.56 1752.01,95.52"/>
    </edge>
    <edge id=":2102480543_3" function="internal">
        <lane id=":2102480543_3_0" index="0" speed="3.65" length="4.67" shape="1747.19,107.13 1747.47,105.72 1748.05,105.04 1748.94,105.10 1750.14,105.90"/>
    </edge>
    <edge id=":2102480543_4" function="internal">
        <lane id=":2102480543_4_0" index="0" speed="6.58" length="9.19" shape="1753.27,98.46 1751.10,99.77 1749.85,101.45 1749.53,103.50 1750.14,105.90"/>
    </edge>
    <edge id=":2102480543_5" function="internal">
        <lane id=":2102480543_5_0" index="0" speed="13.89" length="14.54" shape="1753.27,98.46 1739.87,104.10"/>
    </edge>
    <edge id=":2102480543_6" function="internal">
        <lane id=":2102480543_6_0" index="0" speed="7.93" length="4.15" shape="1753.27,98.46 1749.45,99.49 1749.26,99.46"/>
    </edge>
    <edge id=":2102480543_7" function="internal">
        <lane id=":2102480543_7_0" index="0" speed="3.65" length="1.44" shape="1753.27,98.46 1751.86,98.20"/>
    </edge>
    <edge id=":2102480543_16" function="internal">
        <lane id=":2102480543_16_0" index="0" speed="7.93" length="10.20" shape="1749.26,99.46 1746.27,99.02 1743.71,97.06 1741.79,93.60"/>
    </edge>
    <edge id=":2102480543_17" function="internal">
        <lane id=":2102480543_17_0" index="0" speed="3.65" length="3.23" shape="1751.86,98.20 1751.17,97.62 1751.22,96.73 1752.01,95.52"/>
    </edge>
    <edge id=":2102480543_8" function="internal">
        <lane id=":2102480543_8_0" index="0" speed="6.42" length="9.04" shape="1744.78,92.46 1745.99,94.64 1747.60,95.87 1749.61,96.17 1752.01,95.52"/>
    </edge>
    <edge id=":2102480543_9" function="internal">
        <lane id=":2102480543_9_0" index="0" speed="13.89" length="14.47" shape="1744.78,92.46 1750.14,105.90"/>
    </edge>
    <edge id=":2102480543_10" function="internal">
        <lane id=":2102480543_10_0" index="0" speed="8.11" length="14.33" shape="1744.78,92.46 1745.67,96.30 1745.14,99.52 1743.21,102.12 1739.87,104.10"/>
    </edge>
    <edge id=":2102480543_11" function="internal">
        <lane id=":2102480543_11_0" index="0" speed="3.65" length="4.67" shape="1744.78,92.46 1744.46,93.87 1743.86,94.52 1742.97,94.44 1741.79,93.60"/>
    </edge>
    <edge id=":2102480543_12" function="internal">
        <lane id=":2102480543_12_0" index="0" speed="6.64" length="9.27" shape="1738.65,101.14 1740.80,99.87 1742.04,98.18 1742.37,96.10 1741.79,93.60"/>
    </edge>
    <edge id=":2102480543_13" function="internal">
        <lane id=":2102480543_13_0" index="0" speed="13.89" length="14.50" shape="1738.65,101.14 1752.01,95.52"/>
    </edge>
    <edge id=":2102480543_14" function="internal">
        <lane id=":2102480543_14_0" index="0" speed="8.01" length="4.01" shape="1738.65,101.14 1742.41,100.18 1742.54,100.20"/>
    </edge>
    <edge id=":2102480543_15" function="internal">
        <lane id=":2102480543_15_0" index="0" speed="3.65" length="1.44" shape="1738.65,101.14 1740.06,101.43"/>
    </edge>
    <edge id=":2102480543_18" function="internal">
        <lane id=":2102480543_18_0" index="0" speed="8.01" length="10.17" shape="1742.54,100.20 1745.58,100.66 1748.16,102.56 1750.14,105.90"/>
    </edge>
    <edge id=":2102480543_19" function="internal">
        <lane id=":2102480543_19_0" index="0" speed="3.65" length="3.23" shape="1740.06,101.43 1740.74,102.01 1740.67,102.90 1739.87,104.10"/>
    </edge>
    <edge id=":2102480576_0" function="internal">
        <lane id=":2102480576_0_0" index="0" speed="6.36" length="9.30" shape="1467.51,221.75 1467.08,219.27 1465.91,217.61 1464.00,216.77 1461.34,216.76"/>
    </edge>
    <edge id=":2102480576_1" function="internal">
        <lane id=":2102480576_1_0" index="0" speed="13.89" length="14.85" shape="1467.51,221.75 1467.29,218.03 1466.78,214.37 1465.99,210.75 1464.93,207.18"/>
    </edge>
    <edge id=":2102480576_2" function="internal">
        <lane id=":2102480576_2_0" index="0" speed="9.66" length="15.16" shape="1467.51,221.75 1467.93,217.76 1469.35,214.44 1471.78,211.80 1475.21,209.84"/>
    </edge>
    <edge id=":2102480576_3" function="internal">
        <lane id=":2102480576_3_0" index="0" speed="3.65" length="4.67" shape="1467.51,221.75 1468.29,220.54 1469.08,220.12 1469.89,220.50 1470.71,221.69"/>
    </edge>
    <edge id=":2102480576_4" function="internal">
        <lane id=":2102480576_4_0" index="0" speed="8.41" length="11.30" shape="1476.43,212.80 1473.88,214.26 1472.08,216.23 1471.02,218.70 1470.71,221.69"/>
    </edge>
    <edge id=":2102480576_5" function="internal">
        <lane id=":2102480576_5_0" index="0" speed="13.89" length="15.64" shape="1476.43,212.80 1472.82,214.13 1469.01,215.25 1465.14,216.13 1461.34,216.76"/>
    </edge>
    <edge id=":2102480576_6" function="internal">
        <lane id=":2102480576_6_0" index="0" speed="7.98" length="4.35" shape="1476.43,212.80 1472.55,213.76 1472.20,213.69"/>
    </edge>
    <edge id=":2102480576_7" function="internal">
        <lane id=":2102480576_7_0" index="0" speed="3.65" length="1.44" shape="1476.43,212.80 1475.02,212.52"/>
    </edge>
    <edge id=":2102480576_16" function="internal">
        <lane id=":2102480576_16_0" index="0" speed="7.98" length="10.48" shape="1472.20,213.69 1469.33,213.14 1466.80,210.95 1464.93,207.18"/>
    </edge>
    <edge id=":2102480576_17" function="internal">
        <lane id=":2102480576_17_0" index="0" speed="3.65" length="3.23" shape="1475.02,212.52 1474.34,211.93 1474.41,211.04 1475.21,209.84"/>
    </edge>
    <edge id=":2102480576_8" function="internal">
        <lane id=":2102480576_8_0" index="0" speed="6.48" length="9.41" shape="1467.97,206.16 1469.16,208.59 1470.76,210.01 1472.78,210.43 1475.21,209.84"/>
    </edge>
    <edge id=":2102480576_9" function="internal">
        <lane id=":2102480576_9_0" index="0" speed="13.89" length="15.82" shape="1467.97,206.16 1469.05,209.89 1469.90,213.83 1470.46,217.82 1470.71,221.69"/>
    </edge>
    <edge id=":2102480576_10" function="internal">
        <lane id=":2102480576_10_0" index="0" speed="7.70" length="14.99" shape="1467.97,206.16 1468.72,210.32 1467.87,213.47 1465.41,215.62 1461.34,216.76"/>
    </edge>
    <edge id=":2102480576_11" function="internal">
        <lane id=":2102480576_11_0" index="0" speed="3.65" length="4.67" shape="1467.97,206.16 1467.59,207.55 1466.96,208.19 1466.07,208.06 1464.93,207.18"/>
    </edge>
    <edge id=":2102480576_12" function="internal">
        <lane id=":2102480576_12_0" index="0" speed="6.13" length="9.06" shape="1460.93,213.58 1463.39,212.90 1464.88,211.60 1465.39,209.69 1464.93,207.18"/>
    </edge>
    <edge id=":2102480576_13" function="internal">
        <lane id=":2102480576_13_0" index="0" speed="13.89" length="14.81" shape="1460.93,213.58 1464.60,212.99 1468.19,212.19 1471.73,211.14 1475.21,209.84"/>
    </edge>
    <edge id=":2102480576_14" function="internal">
        <lane id=":2102480576_14_0" index="0" speed="7.88" length="4.05" shape="1460.93,213.58 1464.98,213.62"/>
    </edge>
    <edge id=":2102480576_15" function="internal">
        <lane id=":2102480576_15_0" index="0" speed="3.65" length="1.44" shape="1460.93,213.58 1462.22,214.22"/>
    </edge>
    <edge id=":2102480576_18" function="internal">
        <lane id=":2102480576_18_0" index="0" speed="7.88" length="10.82" shape="1464.98,213.62 1465.14,213.62 1468.17,214.99 1470.03,217.67 1470.71,221.69"/>
    </edge>
    <edge id=":2102480576_19" function="internal">
        <lane id=":2102480576_19_0" index="0" speed="3.65" length="3.23" shape="1462.22,214.22 1462.72,214.96 1462.43,215.81 1461.34,216.76"/>
    </edge>
    <edge id=":2102480797_0" function="internal">
        <lane id=":2102480797_0_0" index="0" speed="11.52" length="11.17" shape="1604.59,316.78 1603.51,313.77 1602.43,311.55 1600.83,309.78 1598.21,308.09"/>
    </edge>
    <edge id=":2102480797_1" function="internal">
        <lane id=":2102480797_1_0" index="0" speed="7.83" length="14.58" shape="1604.59,316.78 1603.80,312.81 1604.52,309.65 1606.77,307.32 1610.53,305.80"/>
    </edge>
    <edge id=":2102480797_2" function="internal">
        <lane id=":2102480797_2_0" index="0" speed="3.65" length="4.67" shape="1604.59,316.78 1604.94,315.39 1605.56,314.74 1606.45,314.85 1607.60,315.72"/>
    </edge>
    <edge id=":2102480797_3" function="internal">
        <lane id=":2102480797_3_0" index="0" speed="6.30" length="9.04" shape="1611.29,308.91 1608.96,309.85 1607.57,311.30 1607.12,313.26 1607.60,315.72"/>
    </edge>
    <edge id=":2102480797_4" function="internal">
        <lane id=":2102480797_4_0" index="0" speed="12.73" length="13.43" shape="1611.29,308.91 1607.82,309.61 1604.58,309.83 1601.43,309.38 1598.21,308.09"/>
    </edge>
    <edge id=":2102480797_5" function="internal">
        <lane id=":2102480797_5_0" index="0" speed="3.65" length="1.44" shape="1611.29,308.91 1609.93,308.42"/>
    </edge>
    <edge id=":2102480797_9" function="internal">
        <lane id=":2102480797_9_0" index="0" speed="3.65" length="3.23" shape="1609.93,308.42 1609.35,307.74 1609.55,306.86 1610.53,305.80"/>
    </edge>
    <edge id=":2102480797_6" function="internal">
        <lane id=":2102480797_6_0" index="0" speed="11.65" length="11.20" shape="1599.72,305.27 1602.59,306.51 1604.96,306.86 1607.41,306.55 1610.53,305.80"/>
    </edge>
    <edge id=":2102480797_7" function="internal">
        <lane id=":2102480797_7_0" index="0" speed="12.59" length="13.44" shape="1599.72,305.27 1602.58,307.23 1604.69,309.61 1606.29,312.43 1607.60,315.72"/>
    </edge>
    <edge id=":2102480797_8" function="internal">
        <lane id=":2102480797_8_0" index="0" speed="3.65" length="1.33" shape="1599.72,305.27 1600.35,306.44"/>
    </edge>
    <edge id=":2102480797_10" function="internal">
        <lane id=":2102480797_10_0" index="0" speed="3.65" length="3.34" shape="1600.35,306.44 1600.40,306.54 1600.38,307.43 1599.65,307.95 1598.21,308.09"/>
    </edge>
    <edge id=":2102480800_0" function="internal">
        <lane id=":2102480800_0_0" index="0" speed="13.89" length="3.00" shape="1862.24,375.02 1863.37,377.80"/>
    </edge>
    <edge id=":2102480800_1" function="internal">
        <lane id=":2102480800_1_0" index="0" speed="3.65" length="4.67" shape="1862.24,375.02 1861.97,376.44 1861.38,377.11 1860.49,377.05 1859.29,376.25"/>
    </edge>
    <edge id=":2102480805_0" function="internal">
        <lane id=":2102480805_0_0" index="0" speed="6.07" length="8.60" shape="1922.88,528.12 1923.44,530.46 1923.06,532.31 1921.75,533.68 1919.51,534.56"/>
    </edge>
    <edge id=":2102480805_1" function="internal">
        <lane id=":2102480805_1_0" index="0" speed="3.90" length="2.87" shape="1918.78,531.44 1919.53,531.15 1919.96,530.69 1920.09,530.07 1919.90,529.29"/>
    </edge>
    <edge id=":2102480808_0" function="internal">
        <lane id=":2102480808_0_0" index="0" speed="6.19" length="7.50" shape="1699.51,585.58 1698.26,585.47 1697.09,584.56 1696.00,582.84 1694.99,580.31"/>
    </edge>
    <edge id=":2102480808_1" function="internal">
        <lane id=":2102480808_1_0" index="0" speed="3.65" length="4.67" shape="1699.51,585.58 1698.16,585.06 1697.60,584.37 1697.81,583.50 1698.80,582.46"/>
    </edge>
    <edge id=":301037251_0" function="internal">
        <lane id=":301037251_0_0" index="0" speed="3.65" length="4.67" shape="1131.31,481.19 1132.68,481.63 1133.29,482.28 1133.12,483.16 1132.19,484.27"/>
    </edge>
    <edge id=":301037252_0" function="internal">
        <lane id=":301037252_0_0" index="0" speed="6.57" length="0.62" shape="489.90,783.38 489.98,782.77"/>
    </edge>
    <edge id=":301037252_1" function="internal">
        <lane id=":301037252_1_0" index="0" speed="3.65" length="0.59" shape="489.90,783.38 490.08,782.82"/>
    </edge>
    <edge id=":301037252_4" function="internal">
        <lane id=":301037252_4_0" index="0" speed="6.57" length="6.36" shape="489.98,782.77 490.01,782.47 490.81,781.33 492.28,779.98 494.43,778.39"/>
    </edge>
    <edge id=":301037252_5" function="internal">
        <lane id=":301037252_5_0" index="0" speed="3.65" length="4.08" shape="490.08,782.82 490.34,782.01 491.00,781.40 491.88,781.57 492.98,782.50"/>
    </edge>
    <edge id=":301037252_2" function="internal">
        <lane id=":301037252_2_0" index="0" speed="11.64" length="8.52" shape="486.49,780.75 488.99,780.75 490.73,780.48 492.33,779.76 494.43,778.39"/>
    </edge>
    <edge id=":301037252_3" function="internal">
        <lane id=":301037252_3_0" index="0" speed="6.52" length="6.98" shape="486.49,780.75 489.15,780.91 491.12,781.25 492.40,781.78 492.98,782.50"/>
    </edge>
    <edge id=":301037253_0" function="internal">
        <lane id=":301037253_0_0" index="0" speed="3.65" length="4.67" shape="341.48,837.41 340.06,837.17 339.37,836.61 339.40,835.71 340.17,834.49"/>
    </edge>
    <edge id=":301037254_0" function="internal">
        <lane id=":301037254_0_0" index="0" speed="10.00" length="0.43" shape="426.61,1034.67 426.56,1034.25"/>
    </edge>
    <edge id=":301037254_1" function="internal">
        <lane id=":301037254_1_0" index="0" speed="3.65" length="0.18" shape="426.61,1034.67 426.63,1034.49"/>
    </edge>
    <edge id=":301037254_4" function="internal">
        <lane id=":301037254_4_0" index="0" speed="10.00" length="6.80" shape="426.56,1034.25 426.40,1032.95 427.43,1031.85 428.88,1030.70 429.92,1028.83"/>
    </edge>
    <edge id=":301037254_5" function="internal">
        <lane id=":301037254_5_0" index="0" speed="3.65" length="4.49" shape="426.63,1034.49 426.80,1033.24 427.34,1032.53 428.24,1032.54 429.48,1033.27"/>
    </edge>
    <edge id=":301037254_2" function="internal">
        <lane id=":301037254_2_0" index="0" speed="6.21" length="9.63" shape="422.83,1032.35 425.39,1033.19 427.42,1032.88 428.93,1031.43 429.92,1028.83"/>
    </edge>
    <edge id=":301037254_3" function="internal">
        <lane id=":301037254_3_0" index="0" speed="9.96" length="6.71" shape="422.83,1032.35 429.48,1033.27"/>
    </edge>
    <edge id=":301037255_0" function="internal">
        <lane id=":301037255_0_0" index="0" speed="3.65" length="4.67" shape="293.06,723.37 291.65,723.05 290.99,722.45 291.08,721.56 291.92,720.38"/>
    </edge>
    <edge id=":3055043746_0" function="internal">
        <lane id=":3055043746_0_0" index="0" speed="3.65" length="4.67" shape="656.61,954.20 655.78,955.37 654.97,955.75 654.18,955.33 653.41,954.11"/>
    </edge>
    <edge id=":3055043751_0" function="internal">
        <lane id=":3055043751_0_0" index="0" speed="6.43" length="9.03" shape="646.77,705.80 645.52,703.66 643.88,702.45 641.87,702.19 639.48,702.88"/>
    </edge>
    <edge id=":3055043751_1" function="internal">
        <lane id=":3055043751_1_0" index="0" speed="13.89" length="14.51" shape="646.77,705.80 640.84,692.56"/>
    </edge>
    <edge id=":3055043751_2" function="internal">
        <lane id=":3055043751_2_0" index="0" speed="8.14" length="14.26" shape="646.77,705.80 645.81,701.99 646.24,698.76 648.07,696.11 651.31,694.03"/>
    </edge>
    <edge id=":3055043751_3" function="internal">
        <lane id=":3055043751_3_0" index="0" speed="3.65" length="4.67" shape="646.77,705.80 647.06,704.39 647.65,703.72 648.54,703.79 649.74,704.60"/>
    </edge>
    <edge id=":3055043751_4" function="internal">
        <lane id=":3055043751_4_0" index="0" speed="6.67" length="9.25" shape="652.63,696.95 650.55,698.29 649.37,700.01 649.10,702.11 649.74,704.60"/>
    </edge>
    <edge id=":3055043751_5" function="internal">
        <lane id=":3055043751_5_0" index="0" speed="13.89" length="14.43" shape="652.63,696.95 639.48,702.88"/>
    </edge>
    <edge id=":3055043751_6" function="internal">
        <lane id=":3055043751_6_0" index="0" speed="8.10" length="4.03" shape="652.63,696.95 648.94,698.01 648.75,697.99"/>
    </edge>
    <edge id=":3055043751_7" function="internal">
        <lane id=":3055043751_7_0" index="0" speed="3.65" length="1.44" shape="652.63,696.95 651.21,696.71"/>
    </edge>
    <edge id=":3055043751_16" function="internal">
        <lane id=":3055043751_16_0" index="0" speed="8.10" length="10.21" shape="648.75,697.99 645.74,697.64 643.04,695.82 640.84,692.56"/>
    </edge>
    <edge id=":3055043751_17" function="internal">
        <lane id=":3055043751_17_0" index="0" speed="3.65" length="3.23" shape="651.21,696.71 650.51,696.15 650.55,695.26 651.31,694.03"/>
    </edge>
    <edge id=":3055043751_8" function="internal">
        <lane id=":3055043751_8_0" index="0" speed="6.63" length="9.20" shape="643.72,691.16 645.14,693.28 646.88,694.46 648.94,694.71 651.31,694.03"/>
    </edge>
    <edge id=":3055043751_9" function="internal">
        <lane id=":3055043751_9_0" index="0" speed="13.89" length="14.73" shape="643.72,691.16 649.74,704.60"/>
    </edge>
    <edge id=":3055043751_10" function="internal">
        <lane id=":3055043751_10_0" index="0" speed="7.94" length="14.33" shape="643.72,691.16 644.93,694.91 644.63,698.11 642.81,700.77 639.48,702.88"/>
    </edge>
    <edge id=":3055043751_11" function="internal">
        <lane id=":3055043751_11_0" index="0" speed="3.65" length="4.67" shape="643.72,691.16 643.53,692.59 642.99,693.30 642.09,693.29 640.84,692.56"/>
    </edge>
    <edge id=":3055043751_12" function="internal">
        <lane id=":3055043751_12_0" index="0" speed="6.43" length="9.04" shape="638.17,699.96 640.27,698.63 641.42,696.95 641.61,694.93 640.84,692.56"/>
    </edge>
    <edge id=":3055043751_13" function="internal">
        <lane id=":3055043751_13_0" index="0" speed="13.89" length="14.41" shape="638.17,699.96 651.31,694.03"/>
    </edge>
    <edge id=":3055043751_14" function="internal">
        <lane id=":3055043751_14_0" index="0" speed="7.94" length="4.08" shape="638.17,699.96 641.96,698.87 642.10,698.89"/>
    </edge>
    <edge id=":3055043751_15" function="internal">
        <lane id=":3055043751_15_0" index="0" speed="3.65" length="1.44" shape="638.17,699.96 639.59,700.20"/>
    </edge>
    <edge id=":3055043751_18" function="internal">
        <lane id=":3055043751_18_0" index="0" speed="7.94" length="10.25" shape="642.10,698.89 645.16,699.28 647.75,701.19 649.74,704.60"/>
    </edge>
    <edge id=":3055043751_19" function="internal">
        <lane id=":3055043751_19_0" index="0" speed="3.65" length="3.23" shape="639.59,700.20 640.29,700.76 640.25,701.66 639.48,702.88"/>
    </edge>
    <edge id=":3055043752_0" function="internal">
        <lane id=":3055043752_0_0" index="0" speed="13.89" length="14.69" shape="530.32,924.50 526.28,910.38"/>
    </edge>
    <edge id=":3055043752_1" function="internal">
        <lane id=":3055043752_1_0" index="0" speed="7.57" length="4.44" shape="530.32,924.50 529.72,920.10"/>
    </edge>
    <edge id=":3055043752_2" function="internal">
        <lane id=":3055043752_2_0" index="0" speed="3.65" length="1.44" shape="530.32,924.50 530.76,923.13"/>
    </edge>
    <edge id=":3055043752_9" function="internal">
        <lane id=":3055043752_9_0" index="0" speed="7.57" length="11.03" shape="529.72,920.10 530.78,916.99 533.52,915.16 537.92,914.61"/>
    </edge>
    <edge id=":3055043752_10" function="internal">
        <lane id=":3055043752_10_0" index="0" speed="3.65" length="3.23" shape="530.76,923.13 531.42,922.52 532.30,922.69 533.40,923.62"/>
    </edge>
    <edge id=":3055043752_3" function="internal">
        <lane id=":3055043752_3_0" index="0" speed="5.96" length="9.09" shape="537.87,917.81 535.28,918.13 533.67,919.21 533.04,921.04 533.40,923.62"/>
    </edge>
    <edge id=":3055043752_4" function="internal">
        <lane id=":3055043752_4_0" index="0" speed="9.22" length="14.84" shape="537.87,917.81 533.58,917.28 530.21,915.86 527.78,913.56 526.28,910.38"/>
    </edge>
    <edge id=":3055043752_5" function="internal">
        <lane id=":3055043752_5_0" index="0" speed="3.65" length="4.67" shape="537.87,917.81 536.68,916.99 536.30,916.18 536.71,915.39 537.92,914.61"/>
    </edge>
    <edge id=":3055043752_6" function="internal">
        <lane id=":3055043752_6_0" index="0" speed="7.92" length="10.74" shape="529.35,909.50 530.42,911.68 532.21,913.27 534.71,914.24 537.92,914.61"/>
    </edge>
    <edge id=":3055043752_7" function="internal">
        <lane id=":3055043752_7_0" index="0" speed="13.89" length="14.69" shape="529.35,909.50 533.40,923.62"/>
    </edge>
    <edge id=":3055043752_8" function="internal">
        <lane id=":3055043752_8_0" index="0" speed="3.65" length="1.44" shape="529.35,909.50 528.92,910.87"/>
    </edge>
    <edge id=":3055043752_11" function="internal">
        <lane id=":3055043752_11_0" index="0" speed="3.65" length="3.23" shape="528.92,910.87 528.26,911.47 527.38,911.31 526.28,910.38"/>
    </edge>
    <edge id=":3055043753_0" function="internal">
        <lane id=":3055043753_0_0" index="0" speed="5.40" length="5.89" shape="733.54,921.47 732.96,922.19 732.66,923.91 732.54,925.81 732.50,927.13"/>
    </edge>
    <edge id=":3055043753_1" function="internal">
        <lane id=":3055043753_1_0" index="0" speed="13.89" length="9.62" shape="733.54,921.47 723.93,921.23"/>
    </edge>
    <edge id=":3055043753_2" function="internal">
        <lane id=":3055043753_2_0" index="0" speed="3.65" length="1.44" shape="733.54,921.47 732.38,920.61"/>
    </edge>
    <edge id=":3055043753_9" function="internal">
        <lane id=":3055043753_9_0" index="0" speed="3.65" length="3.23" shape="732.38,920.61 732.02,919.79 732.46,919.01 733.69,918.27"/>
    </edge>
    <edge id=":3055043753_3" function="internal">
        <lane id=":3055043753_3_0" index="0" speed="13.89" length="9.71" shape="723.99,918.03 733.69,918.27"/>
    </edge>
    <edge id=":3055043753_4" function="internal">
        <lane id=":3055043753_4_0" index="0" speed="7.95" length="4.14" shape="723.99,918.03 727.88,918.66 728.05,918.77"/>
    </edge>
    <edge id=":3055043753_5" function="internal">
        <lane id=":3055043753_5_0" index="0" speed="3.65" length="1.44" shape="723.99,918.03 725.17,918.85"/>
    </edge>
    <edge id=":3055043753_10" function="internal">
        <lane id=":3055043753_10_0" index="0" speed="7.95" length="10.17" shape="728.05,918.77 730.59,920.38 732.13,923.21 732.50,927.13"/>
    </edge>
    <edge id=":3055043753_11" function="internal">
        <lane id=":3055043753_11_0" index="0" speed="3.65" length="3.23" shape="725.17,918.85 725.56,919.65 725.14,920.45 723.93,921.23"/>
    </edge>
    <edge id=":3055043753_6" function="internal">
        <lane id=":3055043753_6_0" index="0" speed="6.44" length="9.03" shape="729.30,926.97 729.07,924.50 728.10,922.71 726.38,921.62 723.93,921.23"/>
    </edge>
    <edge id=":3055043753_7" function="internal">
        <lane id=":3055043753_7_0" index="0" speed="7.02" length="10.68" shape="729.30,926.97 729.74,923.10 730.62,920.35 731.93,918.75 733.69,918.27"/>
    </edge>
    <edge id=":3055043753_8" function="internal">
        <lane id=":3055043753_8_0" index="0" speed="3.65" length="4.67" shape="729.30,926.97 730.16,925.81 730.98,925.45 731.76,925.89 732.50,927.13"/>
    </edge>
    <edge id=":3055043754_0" function="internal">
        <lane id=":3055043754_0_0" index="0" speed="3.65" length="4.67" shape="732.35,930.09 731.50,931.25 730.68,931.61 729.90,931.18 729.16,929.94"/>
    </edge>
    <edge id=":3178456078_0" function="internal">
        <lane id=":3178456078_0_0" index="0" speed="6.55" length="9.11" shape="663.14,920.10 660.66,920.41 658.88,921.44 657.77,923.18 657.36,925.64"/>
    </edge>
    <edge id=":3178456078_1" function="internal">
        <lane id=":3178456078_1_0" index="0" speed="13.89" length="14.45" shape="663.14,920.10 648.69,919.84"/>
    </edge>
    <edge id=":3178456078_2" function="internal">
        <lane id=":3178456078_2_0" index="0" speed="7.99" length="14.22" shape="663.14,920.10 659.29,919.48 656.57,917.77 654.99,914.98 654.53,911.11"/>
    </edge>
    <edge id=":3178456078_3" function="internal">
        <lane id=":3178456078_3_0" index="0" speed="3.65" length="4.67" shape="663.14,920.10 661.95,919.28 661.57,918.48 661.98,917.68 663.20,916.91"/>
    </edge>
    <edge id=":3178456078_4" function="internal">
        <lane id=":3178456078_4_0" index="0" speed="6.49" length="9.03" shape="657.73,911.19 658.02,913.65 659.03,915.43 660.75,916.51 663.20,916.91"/>
    </edge>
    <edge id=":3178456078_5" function="internal">
        <lane id=":3178456078_5_0" index="0" speed="13.89" length="14.45" shape="657.73,911.19 657.36,925.64"/>
    </edge>
    <edge id=":3178456078_6" function="internal">
        <lane id=":3178456078_6_0" index="0" speed="8.04" length="4.08" shape="657.73,911.19 657.08,915.04 656.99,915.19"/>
    </edge>
    <edge id=":3178456078_7" function="internal">
        <lane id=":3178456078_7_0" index="0" speed="3.65" length="1.44" shape="657.73,911.19 656.90,912.37"/>
    </edge>
    <edge id=":3178456078_16" function="internal">
        <lane id=":3178456078_16_0" index="0" speed="8.04" length="10.17" shape="656.99,915.19 655.36,917.76 652.56,919.36 648.69,919.84"/>
    </edge>
    <edge id=":3178456078_17" function="internal">
        <lane id=":3178456078_17_0" index="0" speed="3.65" length="3.23" shape="656.90,912.37 656.09,912.75 655.30,912.33 654.53,911.11"/>
    </edge>
    <edge id=":3178456078_8" function="internal">
        <lane id=":3178456078_8_0" index="0" speed="6.55" length="9.11" shape="648.75,916.64 651.23,916.33 653.01,915.31 654.12,913.57 654.53,911.11"/>
    </edge>
    <edge id=":3178456078_9" function="internal">
        <lane id=":3178456078_9_0" index="0" speed="13.89" length="14.45" shape="648.75,916.64 663.20,916.91"/>
    </edge>
    <edge id=":3178456078_10" function="internal">
        <lane id=":3178456078_10_0" index="0" speed="7.99" length="14.22" shape="648.75,916.64 652.60,917.26 655.32,918.97 656.90,921.76 657.36,925.64"/>
    </edge>
    <edge id=":3178456078_11" function="internal">
        <lane id=":3178456078_11_0" index="0" speed="3.65" length="4.67" shape="648.75,916.64 649.94,917.46 650.32,918.27 649.91,919.06 648.69,919.84"/>
    </edge>
    <edge id=":3178456078_12" function="internal">
        <lane id=":3178456078_12_0" index="0" speed="6.49" length="9.03" shape="654.16,925.55 653.87,923.09 652.86,921.32 651.14,920.24 648.69,919.84"/>
    </edge>
    <edge id=":3178456078_13" function="internal">
        <lane id=":3178456078_13_0" index="0" speed="13.89" length="14.45" shape="654.16,925.55 654.53,911.11"/>
    </edge>
    <edge id=":3178456078_14" function="internal">
        <lane id=":3178456078_14_0" index="0" speed="8.04" length="4.08" shape="654.16,925.55 654.81,921.71 654.90,921.56"/>
    </edge>
    <edge id=":3178456078_15" function="internal">
        <lane id=":3178456078_15_0" index="0" speed="3.65" length="1.44" shape="654.16,925.55 654.99,924.38"/>
    </edge>
    <edge id=":3178456078_18" function="internal">
        <lane id=":3178456078_18_0" index="0" speed="8.04" length="10.17" shape="654.90,921.56 656.53,918.99 659.33,917.39 663.20,916.91"/>
    </edge>
    <edge id=":3178456078_19" function="internal">
        <lane id=":3178456078_19_0" index="0" speed="3.65" length="3.23" shape="654.99,924.38 655.80,924.00 656.59,924.42 657.36,925.64"/>
    </edge>
    <edge id=":3635907904_0" function="internal">
        <lane id=":3635907904_0_0" index="0" speed="3.65" length="4.67" shape="235.49,603.15 234.08,602.89 233.39,602.31 233.45,601.42 234.23,600.21"/>
    </edge>
    <edge id=":3635907910_0" function="internal">
        <lane id=":3635907910_0_0" index="0" speed="13.89" length="14.36" shape="96.81,607.91 90.77,594.88"/>
    </edge>
    <edge id=":3635907910_1" function="internal">
        <lane id=":3635907910_1_0" index="0" speed="7.99" length="4.04" shape="96.81,607.91 95.70,604.17 95.72,604.03"/>
    </edge>
    <edge id=":3635907910_2" function="internal">
        <lane id=":3635907910_2_0" index="0" speed="3.65" length="1.44" shape="96.81,607.91 97.04,606.49"/>
    </edge>
    <edge id=":3635907910_9" function="internal">
        <lane id=":3635907910_9_0" index="0" speed="7.99" length="10.17" shape="95.72,604.03 96.06,600.98 97.89,598.34 101.18,596.25"/>
    </edge>
    <edge id=":3635907910_10" function="internal">
        <lane id=":3635907910_10_0" index="0" speed="3.65" length="3.23" shape="97.04,606.49 97.60,605.79 98.49,605.82 99.72,606.58"/>
    </edge>
    <edge id=":3635907910_3" function="internal">
        <lane id=":3635907910_3_0" index="0" speed="6.49" length="9.03" shape="102.49,599.17 100.40,600.50 99.24,602.18 99.02,604.20 99.72,606.58"/>