<nodes>
<node id="301037251" x="169.61313406692352" y="-63.64399807062" />
<node id="301037252" x="-470.83415240305476" y="236.0813126466237" />
<node id="301037253" x="-621.3113161993679" y="289.58016554964706" />
<node id="301037254" x="-534.3132520291256" y="487.14165521785617" />
<node id="301037255" x="-669.6478827748215" y="175.50654066214338" />
<node id="473651125" x="-531.5970223480836" y="475.0736371842213" />
<node id="564483317" x="-752.0893101174152" y="1.0782451396808028" />
<node id="564483459" x="-477.95149069000036" y="211.94927847199142" />
<node id="564483461" x="-485.6161560972687" y="228.57230356009677" />
<node id="564483463" x="-461.8354695287999" y="217.16554412338883" />
<node id="564483517" x="-546.0405223694397" y="482.3047992186621" />
<node id="2102480543" x="783.7676463220268" y="-446.49167027231306" />
<node id="2102480576" x="506.8213832421461" y="-332.2198323230259" />
<node id="2102480797" x="641.453498871997" y="-237.22494136029854" />
<node id="2102480800" x="899.1979847082403" y="-169.37168593658134" />
<node id="2102480805" x="960.6201104433276" y="-14.218450021930039" />
<node id="2102480808" x="735.8537056033965" y="37.91153494408354" />
<node id="3055043746" x="-307.1280931327492" y="407.7819834421389" />
<node id="3055043751" x="-316.63642516417895" y="152.05341881373897" />
<node id="3055043752" x="-432.56683168257587" y="369.68408362101763" />
<node id="3055043753" x="-230.87869553815108" y="373.3864685939625" />
<node id="3055043754" x="-231.37919834302738" y="383.6434434899129" />
<node id="3178456078" x="-306.19122361857444" y="372.0007449835539" />
<node id="3635907904" x="-727.2718452512054" y="55.310634983703494" />
<node id="3635907910" x="-866.8804017464863" y="54.31004960555583" />
<node id="3635907914" x="-567.1144935918273" y="-14.088745175860822" />
<node id="3635907923" x="-905.0813136307988" y="-27.32734083617106" />
<node id="3635907929" x="-834.9346309818793" y="-172.2811968079768" />
<node id="3635907930" x="-735.012289213133" y="-229.7858227295801" />
<node id="3635907938" x="-726.6901029848959" y="-265.3216202571057" />
<node id="3636985377" x="-706.8706305878004" y="98.30967212608084" />
<node id="3636985378" x="-822.0891213245923" y="151.93231537612155" />
<node id="3636985385" x="-820.2519555640174" y="199.97015761723742" />
<node id="3636985386" x="-481.4799624599982" y="198.22638421226293" />
<node id="3636985389" x="-498.6970425846521" y="162.65743629215285" />
<node id="4233524596" x="850.7813852482941" y="-546.3723071948625" />
<node id="4233524597" x="759.9378499650629" y="-508.9136428288184" />
<node id="4233524600" x="858.5766673757462" y="-442.95781232463196" />
<node id="4233524602" x="798.2927362105111" y="-411.61302275862545" />
<node id="4233524603" x="838.6673419239232" y="-397.7793109593913" />
<node id="4233524604" x="872.5498020848026" y="-384.9403896816075" />
<node id="4233524607" x="823.5642880726373" y="-350.96051512798294" />
<node id="4233524608" x="894.5544506442966" y="-311.66456554597244" />
<node id="4233524610" x="847.9348705275916" y="-292.44199108053" />
<node id="4233524611" x="600.2502904614666" y="-259.24398606829345" />
<node id="4233524615" x="651.8112949997885" y="-207.8552666939795" />
<node id="4233524616" x="616.0542269584257" y="-198.5104431505315" />
<node id="4233524617" x="585.9340315166628" y="-191.72301715426147" />
<node id="4233524618" x="910.0697956038639" y="-141.91027316544205" />
<node id="4233524619" x="675.1511969014537" y="-141.68411395000294" />
<node id="4233524620" x="664.9672457486158" y="-141.00602186704054" />
<node id="4233524626" x="-712.2303443213459" y="-115.35772928409278" />
<node id="4233524630" x="-788.1989184804261" y="-76.56362206768245" />
<node id="4233524632" x="-859.348532169126" y="-71.22898767935112" />
<node id="4233524633" x="-664.5089337034151" y="-66.29566269693896" />
<node id="4233524636" x="-846.413435265189" y="-49.884953340981156" />
<node id="4233524637" x="-725.7651210903423" y="-45.704018734861165" />
<node id="4233524638" x="-653.0550442573149" y="-44.268833592534065" />
<node id="4233524639" x="-854.0048402209068" y="-46.40893073473126" />
<node id="4233524641" x="-830.2021154105896" y="-29.97793996334076" />
<node id="4233524644" x="-684.1584987859242" y="-16.742275211028755" />
<node id="4233524645" x="-420.9639435893623" y="-11.557373493909836" />
<node id="4233524646" x="814.6486090762774" y="19.844169003423303" />
<node id="4233524647" x="-712.8431955014821" y="-6.987554384861141" />
<node id="4233524648" x="-818.5011901719263" y="-6.450123834423721" />
<node id="4233524651" x="759.2413770687999" y="32.55319209303707" />
<node id="4233524652" x="-629.7050733079668" y="13.11887324694544" />
<node id="4233524653" x="730.0689188756514" y="40.00061109242961" />
<node id="4233524655" x="-800.9153501030523" y="24.524079690221697" />
<node id="4233524656" x="-663.2648603641428" y="27.7070469208993" />
<node id="4233524659" x="845.4236638776492" y="63.790522592142224" />
<node id="4233524660" x="-693.4104701802135" y="40.816475469153374" />
<node id="4233524663" x="800.849572825944" y="76.72025214834139" />
<node id="4233524666" x="-162.71640518982895" y="82.29065526369959" />
<node id="4233524667" x="721.2372774929972" y="100.94791881274432" />
<node id="4233527004" x="-298.6784282568842" y="260.71844631712884" />
<node id="4233527006" x="-263.15025647194125" y="266.4666518345475" />
<node id="4233527008" x="-239.81291479372885" y="270.24075864534825" />
<node id="4233527010" x="-202.00072100223042" y="276.3523559467867" />
<node id="4233527012" x="-459.59696280793287" y="275.3217677487992" />
<node id="4233527014" x="-304.5437563318992" y="309.08161891577765" />
<node id="4233527016" x="-304.706148457597" y="315.29818603536114" />
<node id="4233527017" x="-281.02927742840257" y="316.01853748364374" />
<node id="4233527018" x="-268.4962375196628" y="316.4024956342764" />
<node id="4233527019" x="-251.58966227783822" y="316.91064476780593" />
<node id="4233527020" x="-242.81363860564306" y="317.18170631257817" />
<node id="4233527021" x="-225.30053259630222" y="317.7120517482981" />
<node id="4233527022" x="-201.0269144217018" y="318.4545457889326" />
<node id="4233527043" x="-278.30124665703624" y="372.50974855432287" />
<node id="4233527044" x="-253.56254767242353" y="372.9723820821382" />
<node id="4233527045" x="-225.83177089341916" y="373.6227292586118" />
<node id="4233527073" x="-501.52826276712585" y="488.68174205254763" />
<node id="4233527074" x="-560.252764164703" y="493.49807037832215" />
<node id="4233527081" x="-444.38862079940736" y="527.8280298779719" />
<node id="4233527085" x="-502.27447899919935" y="552.6926490385085" />
<node id="4233654430" x="716.1459530745633" y="-418.59590748650953" />
<node id="4233654439" x="738.6125620389357" y="-394.4920420218259" />
<node id="4233654441" x="485.5175463274354" y="-395.7811618903652" />
<node id="4233654446" x="773.0172221711837" y="-385.5684905927628" />
<node id="4233654463" x="413.1610142982099" y="-366.40723214438185" />
<node id="4233654465" x="725.7588010496693" y="-357.1331098843366" />
<node id="4233654471" x="560.9277614630992" y="-354.54386070370674" />
<node id="4233654478" x="367.7462232406251" y="-348.2472275313921" />
<node id="4233654485" x="470.948630285915" y="-333.14281701948494" />
<node id="4233654488" x="739.8176184393233" y="-322.4515547528863" />
<node id="4233654500" x="690.2549439996947" y="-303.9475239375606" />
<node id="4233654504" x="458.46412938286085" y="-301.46430434146896" />
<node id="4233654506" x="529.8672854192555" y="-297.50702311331406" />
<node id="4233654514" x="820.1603951654397" y="-281.7318042307161" />
<node id="4233654515" x="485.44476568326354" y="-287.5555295571685" />
<node id="4233654516" x="187.27652484411374" y="-291.31560357799754" />
<node id="4233654517" x="646.023087898735" y="-281.9752883305773" />
<node id="4233654519" x="495.5406211812515" y="-282.3484373148531" />
<node id="4233654522" x="801.4371006800793" y="-274.51413957215846" />
<node id="4233654523" x="205.0028326229658" y="-283.1199931660667" />
<node id="4233654530" x="515.3542854487896" y="-272.1407064823434" />
<node id="4233654533" x="772.1148495817324" y="-263.21138221537694" />
<node id="4233654535" x="751.4985832520761" y="-255.26337957801297" />
<node id="4233654536" x="887.5479312910466" y="-249.39779363805428" />
<node id="4233654539" x="254.69771103956737" y="-259.6721165673807" />
<node id="4233654544" x="782.9271190703148" y="-242.62489357031882" />
<node id="4233654546" x="718.1435436172178" y="-241.31822493998334" />
<node id="4233654548" x="122.77385865885299" y="-250.21094300225377" />
<node id="4233654551" x="768.2019881003071" y="-234.01456091878936" />
<node id="4233654563" x="677.6899422233691" y="-220.90658220089972" />
<node id="4233654565" x="881.5321235596202" y="-211.78050200967118" />
<node id="4233654568" x="382.9595679945778" y="-215.59538319753483" />
<node id="4233654570" x="-634.1363901788136" y="-229.4119976963848" />
<node id="4233654597" x="237.1822771197185" y="-182.51976868137717" />
<node id="4233654607" x="-425.6369241977809" y="-111.2214654814452" />
<node id="4233654614" x="-409.62393849133514" y="-87.44825424207374" />
<node id="4233654616" x="-399.19642641826067" y="-71.96980525087565" />
<node id="4233654621" x="-337.2770937688183" y="-50.51878836704418" />
<node id="4233654624" x="-452.8707472543465" y="-36.640353079885244" />
<node id="4233654625" x="-373.41377987060696" y="-33.694594064261764" />
<node id="4233654626" x="900.773655263707" y="-0.21681105997413397" />
<node id="4233654627" x="859.3325418769382" y="9.477491857018322" />
<node id="4233654628" x="938.6611315893242" y="35.96666395757347" />
<node id="4233654629" x="895.2293620964047" y="49.05005606682971" />
<node id="4999072805" x="-435.57985560561065" y="433.4430186720565" />
<node id="4999072807" x="-420.7920025405474" y="441.1517798169516" />
<node id="4999072808" x="-424.0627183574252" y="429.40695135947317" />
<node id="4999072816" x="-510.97833424503915" y="464.71782225649804" />
<node id="4999072817" x="-381.3994954448426" y="440.5621550520882" />
<node id="5251925075" x="-146.7114555351436" y="269.4239799599163" />
<node id="5251942891" x="-71.97532401129138" y="374.2041637785733" />
<node id="5251942892" x="-72.31749122706242" y="365.60585516737774" />
<node id="5251942893" x="-146.4625978107797" y="336.20262925792485" />
<node id="5251942894" x="-138.26004226936493" y="336.78480633720756" />
<node id="6095495876" x="-962.1360067492351" y="102.98696099221706" />
<node id="6758737650" x="-409.93133996916004" y="326.5935156145133" />
<node id="6758737653" x="-441.0522341434844" y="340.0614153384231" />
<node id="9186411589" x="915.2623161498923" y="-128.7882464490831" />
<node id="9186411596" x="818.9976037053857" y="-361.92020627995953" />
<node id="9186468989" x="-156.70388655667193" y="98.27633156161755" />
</nodes>